/*---------------------------------------------------------------------------*\
  =========                 |
  \\      /  F ield         | OpenFOAM: The Open Source CFD Toolbox
   \\    /   O peration     | Website:  https://openfoam.org
    \\  /    A nd           | Version:  9
     \\/     M anipulation  |
\*---------------------------------------------------------------------------*/
Build  : 9-b456138dc4bc
Exec   : simpleFoam -parallel
Date   : Dec 18 2022
Time   : 05:09:39
Host   : "4ae39a10821b"
PID    : 929
I/O    : uncollated
Case   : /home/openfoam/run/bL
nProcs : 4
Slaves : 
3
(
"4ae39a10821b.932"
"4ae39a10821b.935"
"4ae39a10821b.938"
)

Pstream initialised with:
    floatTransfer      : 0
    nProcsSimpleSum    : 0
    commsType          : nonBlocking
    polling iterations : 0
sigFpe : Enabling floating point exception trapping (FOAM_SIGFPE).
fileModificationChecking : Monitoring run-time modified files using timeStampMaster (fileModificationSkew 10)
allowSystemOperations : Allowing user-supplied system call operations

// * * * * * * * * * * * * * * * * * * * * * * * * * * * * * * * * * * * * * //
Create time

Create mesh for time = 0


SIMPLE: Convergence criteria found
        p: tolerance 1e-05
        U: tolerance 1e-05
        k: tolerance 1e-05
        omega: tolerance 1e-05
        nuTilda: tolerance 1e-05

Reading field p

Reading field U

Reading/calculating face flux field phi

Selecting incompressible transport model Newtonian
Selecting turbulence model type RAS
Selecting RAS turbulence model kOmegaSST
Selecting patchDistMethod meshWave
RAS
{
    RASModel        kOmegaSST;
    turbulence      on;
    printCoeffs     on;
    alphaK1         0.85;
    alphaK2         1;
    alphaOmega1     0.5;
    alphaOmega2     0.856;
    gamma1          0.555556;
    gamma2          0.44;
    beta1           0.075;
    beta2           0.0828;
    betaStar        0.09;
    a1              0.31;
    b1              1;
    c1              10;
    F3              false;
}

No MRF models present

No fvModels present
No fvConstraints present

Starting time loop

Reading set description:
    x314
    x214
    x081

Time = 1

DILUPBiCG:  Solving for Ux, Initial residual = 1, Final residual = 1.82044e-05, No Iterations 2
DILUPBiCG:  Solving for Uy, Initial residual = 0, Final residual = 0, No Iterations 0
DILUPBiCG:  Solving for Uz, Initial residual = 0, Final residual = 0, No Iterations 0
GAMG:  Solving for p, Initial residual = 1, Final residual = 0.0865307, No Iterations 9
time step continuity errors : sum local = 0.00355933, global = -0.000696825, cumulative = -0.000696825
DILUPBiCG:  Solving for omega, Initial residual = 0.998017, Final residual = 4.4482e-05, No Iterations 2
DILUPBiCG:  Solving for k, Initial residual = 1, Final residual = 0.000113493, No Iterations 2
ExecutionTime = 29.16 s  ClockTime = 30 s

Time = 2

DILUPBiCG:  Solving for Ux, Initial residual = 0.749066, Final residual = 0.0019228, No Iterations 2
DILUPBiCG:  Solving for Uy, Initial residual = 0.246456, Final residual = 7.03582e-05, No Iterations 2
DILUPBiCG:  Solving for Uz, Initial residual = 0.322026, Final residual = 0.000301269, No Iterations 2
GAMG:  Solving for p, Initial residual = 0.00529488, Final residual = 0.000457239, No Iterations 8
time step continuity errors : sum local = 0.00185508, global = 0.000231945, cumulative = -0.00046488
DILUPBiCG:  Solving for omega, Initial residual = 0.932914, Final residual = 9.69831e-05, No Iterations 2
DILUPBiCG:  Solving for k, Initial residual = 0.909608, Final residual = 0.00017605, No Iterations 2
ExecutionTime = 34.43 s  ClockTime = 35 s

Time = 3

DILUPBiCG:  Solving for Ux, Initial residual = 0.637398, Final residual = 0.00109291, No Iterations 2
DILUPBiCG:  Solving for Uy, Initial residual = 0.159574, Final residual = 3.84516e-05, No Iterations 2
DILUPBiCG:  Solving for Uz, Initial residual = 0.206361, Final residual = 0.00103821, No Iterations 2
GAMG:  Solving for p, Initial residual = 0.00261845, Final residual = 0.000150402, No Iterations 8
time step continuity errors : sum local = 0.000843731, global = -0.000129021, cumulative = -0.000593902
DILUPBiCG:  Solving for omega, Initial residual = 0.686795, Final residual = 0.000108197, No Iterations 2
DILUPBiCG:  Solving for k, Initial residual = 0.560488, Final residual = 0.000106426, No Iterations 2
ExecutionTime = 39.66 s  ClockTime = 40 s

Time = 4

DILUPBiCG:  Solving for Ux, Initial residual = 0.359986, Final residual = 0.000465115, No Iterations 2
DILUPBiCG:  Solving for Uy, Initial residual = 0.0992224, Final residual = 2.78985e-05, No Iterations 2
DILUPBiCG:  Solving for Uz, Initial residual = 0.0699315, Final residual = 7.18373e-05, No Iterations 2
GAMG:  Solving for p, Initial residual = 0.0052524, Final residual = 0.000492891, No Iterations 8
time step continuity errors : sum local = 0.00246773, global = -0.000342013, cumulative = -0.000935915
DILUPBiCG:  Solving for omega, Initial residual = 0.464805, Final residual = 8.43376e-05, No Iterations 2
DILUPBiCG:  Solving for k, Initial residual = 0.276835, Final residual = 2.6486e-05, No Iterations 2
ExecutionTime = 44.55 s  ClockTime = 45 s

Time = 5

DILUPBiCG:  Solving for Ux, Initial residual = 0.155553, Final residual = 5.72071e-05, No Iterations 2
DILUPBiCG:  Solving for Uy, Initial residual = 0.0565598, Final residual = 1.84587e-05, No Iterations 2
DILUPBiCG:  Solving for Uz, Initial residual = 0.609283, Final residual = 0.000331896, No Iterations 2
GAMG:  Solving for p, Initial residual = 0.00928471, Final residual = 0.000790523, No Iterations 9
time step continuity errors : sum local = 0.0024332, global = 0.000538275, cumulative = -0.00039764
DILUPBiCG:  Solving for omega, Initial residual = 0.311096, Final residual = 5.7161e-05, No Iterations 2
DILUPBiCG:  Solving for k, Initial residual = 0.181877, Final residual = 9.61768e-06, No Iterations 2
ExecutionTime = 49.74 s  ClockTime = 50 s

Time = 6

DILUPBiCG:  Solving for Ux, Initial residual = 0.0342233, Final residual = 1.80091e-05, No Iterations 2
DILUPBiCG:  Solving for Uy, Initial residual = 0.0280631, Final residual = 2.09852e-05, No Iterations 2
DILUPBiCG:  Solving for Uz, Initial residual = 0.365116, Final residual = 0.000257527, No Iterations 2
GAMG:  Solving for p, Initial residual = 0.0292137, Final residual = 0.00247692, No Iterations 9
time step continuity errors : sum local = 0.00194199, global = 0.000430171, cumulative = 3.25306e-05
DILUPBiCG:  Solving for omega, Initial residual = 0.210046, Final residual = 3.80769e-05, No Iterations 2
DILUPBiCG:  Solving for k, Initial residual = 0.171872, Final residual = 5.50557e-06, No Iterations 2
ExecutionTime = 54.91 s  ClockTime = 56 s

Time = 7

DILUPBiCG:  Solving for Ux, Initial residual = 0.0406245, Final residual = 4.67298e-05, No Iterations 2
DILUPBiCG:  Solving for Uy, Initial residual = 0.0268931, Final residual = 2.43904e-05, No Iterations 2
DILUPBiCG:  Solving for Uz, Initial residual = 0.203771, Final residual = 0.00020424, No Iterations 2
GAMG:  Solving for p, Initial residual = 0.0134966, Final residual = 0.00116653, No Iterations 8
time step continuity errors : sum local = 0.00133207, global = -0.000217124, cumulative = -0.000184594
DILUPBiCG:  Solving for omega, Initial residual = 0.144455, Final residual = 2.48702e-05, No Iterations 2
DILUPBiCG:  Solving for k, Initial residual = 0.178125, Final residual = 6.75446e-06, No Iterations 2
ExecutionTime = 60.04 s  ClockTime = 61 s

Time = 8

DILUPBiCG:  Solving for Ux, Initial residual = 0.0665646, Final residual = 5.4555e-05, No Iterations 2
DILUPBiCG:  Solving for Uy, Initial residual = 0.0484195, Final residual = 0.000119752, No Iterations 2
DILUPBiCG:  Solving for Uz, Initial residual = 0.104944, Final residual = 0.000254745, No Iterations 2
GAMG:  Solving for p, Initial residual = 0.00741644, Final residual = 0.0006937, No Iterations 4
time step continuity errors : sum local = 0.00146826, global = -4.76418e-06, cumulative = -0.000189358
DILUPBiCG:  Solving for omega, Initial residual = 0.0863594, Final residual = 1.6228e-05, No Iterations 2
DILUPBiCG:  Solving for k, Initial residual = 0.0117972, Final residual = 6.93073e-07, No Iterations 2
ExecutionTime = 64.64 s  ClockTime = 65 s

Time = 9

