/*---------------------------------------------------------------------------*\
  =========                 |
  \\      /  F ield         | OpenFOAM: The Open Source CFD Toolbox
   \\    /   O peration     | Website:  https://openfoam.org
    \\  /    A nd           | Version:  8
     \\/     M anipulation  |
\*---------------------------------------------------------------------------*/
Build  : 8-1c9b5879390b
Exec   : simpleFoam -parallel
Date   : Jan 31 2022
Time   : 02:12:28
Host   : "ME-SuperJP"
PID    : 16150
I/O    : uncollated
Case   : /mnt/d/foam/nasaHump/bL0
nProcs : 28
Slaves : 
27
(
"ME-SuperJP.16151"
"ME-SuperJP.16152"
"ME-SuperJP.16153"
"ME-SuperJP.16154"
"ME-SuperJP.16155"
"ME-SuperJP.16157"
"ME-SuperJP.16163"
"ME-SuperJP.16166"
"ME-SuperJP.16170"
"ME-SuperJP.16172"
"ME-SuperJP.16174"
"ME-SuperJP.16178"
"ME-SuperJP.16180"
"ME-SuperJP.16184"
"ME-SuperJP.16186"
"ME-SuperJP.16189"
"ME-SuperJP.16190"
"ME-SuperJP.16195"
"ME-SuperJP.16199"
"ME-SuperJP.16203"
"ME-SuperJP.16206"
"ME-SuperJP.16209"
"ME-SuperJP.16212"
"ME-SuperJP.16215"
"ME-SuperJP.16218"
"ME-SuperJP.16220"
"ME-SuperJP.16223"
)

Pstream initialized with:
    floatTransfer      : 0
    nProcsSimpleSum    : 0
    commsType          : nonBlocking
    polling iterations : 0
sigFpe : Enabling floating point exception trapping (FOAM_SIGFPE).
fileModificationChecking : Monitoring run-time modified files using timeStampMaster (fileModificationSkew 10)
allowSystemOperations : Allowing user-supplied system call operations

// * * * * * * * * * * * * * * * * * * * * * * * * * * * * * * * * * * * * * //
Create time

Create mesh for time = 0


SIMPLE: Convergence criteria found
        p: tolerance 1e-05
        U: tolerance 1e-05
        k: tolerance 1e-05
        omega: tolerance 1e-05
        nuTilda: tolerance 1e-05

Reading field p

Reading field U

Reading/calculating face flux field phi

Selecting incompressible transport model Newtonian
Selecting turbulence model type RAS
Selecting RAS turbulence model kOmegaSST
Selecting patchDistMethod meshWave
RAS
{
    RASModel        kOmegaSST;
    turbulence      on;
    printCoeffs     on;
    alphaK1         0.85;
    alphaK2         1;
    alphaOmega1     0.5;
    alphaOmega2     0.856;
    gamma1          0.555556;
    gamma2          0.44;
    beta1           0.075;
    beta2           0.0828;
    betaStar        0.09;
    a1              0.31;
    b1              1;
    c1              10;
    F3              false;
}

No MRF models present

No finite volume options present

Starting time loop

Reading set description:
    x214
    x081

Time = 1

DILUPBiCG:  Solving for Ux, Initial residual = 1, Final residual = 0.000612849, No Iterations 2
DILUPBiCG:  Solving for Uy, Initial residual = 0.999694, Final residual = 0.0014153, No Iterations 2
DILUPBiCG:  Solving for Uz, Initial residual = 0.955716, Final residual = 0.00245334, No Iterations 1
GAMG:  Solving for p, Initial residual = 1, Final residual = 0.0986732, No Iterations 10
time step continuity errors : sum local = 0.00405999, global = 0.00018115, cumulative = 0.00018115
DILUPBiCG:  Solving for omega, Initial residual = 0.998039, Final residual = 0.00455979, No Iterations 2
DILUPBiCG:  Solving for k, Initial residual = 1, Final residual = 0.00860299, No Iterations 2
ExecutionTime = 0.85 s  ClockTime = 1 s

Time = 2

DILUPBiCG:  Solving for Ux, Initial residual = 0.748879, Final residual = 0.00149282, No Iterations 2
DILUPBiCG:  Solving for Uy, Initial residual = 0.24638, Final residual = 0.000222897, No Iterations 2
DILUPBiCG:  Solving for Uz, Initial residual = 0.311197, Final residual = 0.000213609, No Iterations 2
GAMG:  Solving for p, Initial residual = 0.00545572, Final residual = 0.000467368, No Iterations 10
time step continuity errors : sum local = 0.00189591, global = 8.01052e-05, cumulative = 0.000261255
DILUPBiCG:  Solving for omega, Initial residual = 0.922994, Final residual = 0.00906087, No Iterations 2
DILUPBiCG:  Solving for k, Initial residual = 0.90037, Final residual = 0.000587622, No Iterations 3
ExecutionTime = 1.15 s  ClockTime = 2 s

Time = 3

DILUPBiCG:  Solving for Ux, Initial residual = 0.63675, Final residual = 0.00131083, No Iterations 2
DILUPBiCG:  Solving for Uy, Initial residual = 0.159503, Final residual = 0.000145089, No Iterations 2
DILUPBiCG:  Solving for Uz, Initial residual = 0.194654, Final residual = 0.000213416, No Iterations 2
GAMG:  Solving for p, Initial residual = 0.00286052, Final residual = 0.000238021, No Iterations 8
time step continuity errors : sum local = 0.001336, global = -3.86458e-05, cumulative = 0.00022261
DILUPBiCG:  Solving for omega, Initial residual = 0.67817, Final residual = 0.000526768, No Iterations 3
DILUPBiCG:  Solving for k, Initial residual = 0.56135, Final residual = 0.00491879, No Iterations 2
ExecutionTime = 1.42 s  ClockTime = 2 s

Time = 4

DILUPBiCG:  Solving for Ux, Initial residual = 0.359019, Final residual = 0.000728212, No Iterations 2
DILUPBiCG:  Solving for Uy, Initial residual = 0.0988828, Final residual = 8.73228e-05, No Iterations 2
DILUPBiCG:  Solving for Uz, Initial residual = 0.130179, Final residual = 0.000151986, No Iterations 2
GAMG:  Solving for p, Initial residual = 0.0054636, Final residual = 0.000457974, No Iterations 10
time step continuity errors : sum local = 0.00229364, global = -7.07334e-05, cumulative = 0.000151876
DILUPBiCG:  Solving for omega, Initial residual = 0.464672, Final residual = 0.000655714, No Iterations 3
DILUPBiCG:  Solving for k, Initial residual = 0.277544, Final residual = 0.000102725, No Iterations 3
ExecutionTime = 1.73 s  ClockTime = 2 s

Time = 5

DILUPBiCG:  Solving for Ux, Initial residual = 0.154962, Final residual = 0.000296337, No Iterations 2
DILUPBiCG:  Solving for Uy, Initial residual = 0.0557607, Final residual = 6.80944e-05, No Iterations 2
DILUPBiCG:  Solving for Uz, Initial residual = 0.300823, Final residual = 0.000267341, No Iterations 2
GAMG:  Solving for p, Initial residual = 0.00959339, Final residual = 0.000919144, No Iterations 10
time step continuity errors : sum local = 0.00282527, global = -7.30154e-05, cumulative = 7.88609e-05
DILUPBiCG:  Solving for omega, Initial residual = 0.311649, Final residual = 0.000598111, No Iterations 3
DILUPBiCG:  Solving for k, Initial residual = 0.182029, Final residual = 3.38977e-05, No Iterations 3
ExecutionTime = 2.03 s  ClockTime = 2 s

Time = 6

DILUPBiCG:  Solving for Ux, Initial residual = 0.0339585, Final residual = 7.52354e-05, No Iterations 2
DILUPBiCG:  Solving for Uy, Initial residual = 0.0274217, Final residual = 5.73344e-05, No Iterations 2
DILUPBiCG:  Solving for Uz, Initial residual = 0.291489, Final residual = 0.000237122, No Iterations 2
GAMG:  Solving for p, Initial residual = 0.0297416, Final residual = 0.00188761, No Iterations 11
time step continuity errors : sum local = 0.00147978, global = 1.51468e-05, cumulative = 9.40077e-05
DILUPBiCG:  Solving for omega, Initial residual = 0.210351, Final residual = 0.000502793, No Iterations 3
DILUPBiCG:  Solving for k, Initial residual = 0.171873, Final residual = 0.00128248, No Iterations 2
ExecutionTime = 2.37 s  ClockTime = 3 s

Time = 7

DILUPBiCG:  Solving for Ux, Initial residual = 0.0407456, Final residual = 8.66263e-05, No Iterations 2
DILUPBiCG:  Solving for Uy, Initial residual = 0.0273674, Final residual = 4.37139e-05, No Iterations 2
DILUPBiCG:  Solving for Uz, Initial residual = 0.185549, Final residual = 0.000119635, No Iterations 2
GAMG:  Solving for p, Initial residual = 0.0145365, Final residual = 0.00109677, No Iterations 10
time step continuity errors : sum local = 0.0012534, global = -5.67786e-05, cumulative = 3.72291e-05
DILUPBiCG:  Solving for omega, Initial residual = 0.144603, Final residual = 0.000402669, No Iterations 3
DILUPBiCG:  Solving for k, Initial residual = 0.178102, Final residual = 0.000870081, No Iterations 2
ExecutionTime = 2.67 s  ClockTime = 3 s

Time = 8

DILUPBiCG:  Solving for Ux, Initial residual = 0.0666368, Final residual = 0.000157534, No Iterations 2
DILUPBiCG:  Solving for Uy, Initial residual = 0.0489472, Final residual = 0.000299784, No Iterations 2
DILUPBiCG:  Solving for Uz, Initial residual = 0.128336, Final residual = 0.000132044, No Iterations 2
GAMG:  Solving for p, Initial residual = 0.00844817, Final residual = 0.000716335, No Iterations 6
time step continuity errors : sum local = 0.00151694, global = -2.60008e-05, cumulative = 1.12283e-05
DILUPBiCG:  Solving for omega, Initial residual = 0.0864452, Final residual = 0.000156074, No Iterations 3
DILUPBiCG:  Solving for k, Initial residual = 0.0118295, Final residual = 1.29276e-05, No Iterations 2
ExecutionTime = 2.94 s  ClockTime = 3 s

Time = 9

DILUPBiCG:  Solving for Ux, Initial residual = 0.0658176, Final residual = 0.000156815, No Iterations 2
DILUPBiCG:  Solving for Uy, Initial residual = 0.0565898, Final residual = 9.35863e-05, No Iterations 2
DILUPBiCG:  Solving for Uz, Initial residual = 0.136998, Final residual = 0.000144789, No Iterations 2
GAMG:  Solving for p, Initial residual = 0.00962715, Final residual = 0.000635639, No Iterations 8
time step continuity errors : sum local = 0.00139562, global = 3.5268e-05, cumulative = 4.64963e-05
DILUPBiCG:  Solving for omega, Initial residual = 0.0564073, Final residual = 1.25535e-05, No Iterations 4
DILUPBiCG:  Solving for k, Initial residual = 0.00512169, Final residual = 3.48482e-05, No Iterations 2
bounding k, min: -0.000147246 max: 1.37426 average: 0.0208494
ExecutionTime = 3.22 s  ClockTime = 4 s

Time = 10

DILUPBiCG:  Solving for Ux, Initial residual = 0.0477564, Final residual = 0.000107295, No Iterations 2
DILUPBiCG:  Solving for Uy, Initial residual = 0.0487909, Final residual = 8.91644e-05, No Iterations 2
DILUPBiCG:  Solving for Uz, Initial residual = 0.226503, Final residual = 0.000222874, No Iterations 2
GAMG:  Solving for p, Initial residual = 0.0123227, Final residual = 0.000870819, No Iterations 9
time step continuity errors : sum local = 0.00141012, global = -8.92581e-06, cumulative = 3.75705e-05
DILUPBiCG:  Solving for omega, Initial residual = 0.0418537, Final residual = 0.000152714, No Iterations 3
DILUPBiCG:  Solving for k, Initial residual = 0.00903555, Final residual = 1.41446e-05, No Iterations 2
bounding k, min: -0.000129287 max: 1.30426 average: 0.0206723
ExecutionTime = 3.47 s  ClockTime = 4 s

Time = 11

DILUPBiCG:  Solving for Ux, Initial residual = 0.0234643, Final residual = 4.64397e-05, No Iterations 2
DILUPBiCG:  Solving for Uy, Initial residual = 0.0351595, Final residual = 0.000199088, No Iterations 2
DILUPBiCG:  Solving for Uz, Initial residual = 0.288567, Final residual = 0.000270452, No Iterations 2
GAMG:  Solving for p, Initial residual = 0.0219816, Final residual = 0.00179127, No Iterations 9
time step continuity errors : sum local = 0.00135475, global = -8.15992e-06, cumulative = 2.94106e-05
DILUPBiCG:  Solving for omega, Initial residual = 0.0328821, Final residual = 0.00012925, No Iterations 3
DILUPBiCG:  Solving for k, Initial residual = 0.0104613, Final residual = 2.68743e-05, No Iterations 2
bounding k, min: -0.000140165 max: 1.23969 average: 0.0208592
ExecutionTime = 3.72 s  ClockTime = 4 s

Time = 12

DILUPBiCG:  Solving for Ux, Initial residual = 0.00641076, Final residual = 3.52091e-05, No Iterations 2
DILUPBiCG:  Solving for Uy, Initial residual = 0.0343318, Final residual = 4.2432e-05, No Iterations 2
DILUPBiCG:  Solving for Uz, Initial residual = 0.248549, Final residual = 0.000203478, No Iterations 2
GAMG:  Solving for p, Initial residual = 0.121075, Final residual = 0.00896573, No Iterations 9
time step continuity errors : sum local = 0.000928794, global = -8.4343e-06, cumulative = 2.09763e-05
DILUPBiCG:  Solving for omega, Initial residual = 0.0267847, Final residual = 0.000115755, No Iterations 3
DILUPBiCG:  Solving for k, Initial residual = 0.0122654, Final residual = 3.77227e-05, No Iterations 2
bounding k, min: -0.00221875 max: 1.18528 average: 0.0216163
ExecutionTime = 3.98 s  ClockTime = 4 s

Time = 13

DILUPBiCG:  Solving for Ux, Initial residual = 0.0175428, Final residual = 2.97347e-05, No Iterations 2
DILUPBiCG:  Solving for Uy, Initial residual = 0.0363467, Final residual = 4.35132e-05, No Iterations 2
DILUPBiCG:  Solving for Uz, Initial residual = 0.183595, Final residual = 0.000115863, No Iterations 2
GAMG:  Solving for p, Initial residual = 0.0164348, Final residual = 0.0014103, No Iterations 7
time step continuity errors : sum local = 0.000887552, global = -1.51912e-05, cumulative = 5.78503e-06
DILUPBiCG:  Solving for omega, Initial residual = 0.0223897, Final residual = 0.000119943, No Iterations 3
DILUPBiCG:  Solving for k, Initial residual = 0.012327, Final residual = 2.63512e-05, No Iterations 2
bounding k, min: -0.00148531 max: 1.14272 average: 0.0227984
ExecutionTime = 4.22 s  ClockTime = 5 s

Time = 14

DILUPBiCG:  Solving for Ux, Initial residual = 0.0204865, Final residual = 3.62963e-05, No Iterations 2
DILUPBiCG:  Solving for Uy, Initial residual = 0.0350349, Final residual = 4.75893e-05, No Iterations 2
DILUPBiCG:  Solving for Uz, Initial residual = 0.160868, Final residual = 0.000127266, No Iterations 2
GAMG:  Solving for p, Initial residual = 0.0123723, Final residual = 0.000782022, No Iterations 7
time step continuity errors : sum local = 0.000627472, global = 1.50814e-05, cumulative = 2.08664e-05
DILUPBiCG:  Solving for omega, Initial residual = 0.0188031, Final residual = 0.00013676, No Iterations 3
DILUPBiCG:  Solving for k, Initial residual = 0.0123429, Final residual = 2.22939e-05, No Iterations 2
bounding k, min: -0.00100994 max: 1.10968 average: 0.0243524
ExecutionTime = 4.44 s  ClockTime = 5 s

Time = 15

DILUPBiCG:  Solving for Ux, Initial residual = 0.0166145, Final residual = 2.85173e-05, No Iterations 2
DILUPBiCG:  Solving for Uy, Initial residual = 0.0309893, Final residual = 9.60857e-05, No Iterations 2
DILUPBiCG:  Solving for Uz, Initial residual = 0.202462, Final residual = 0.000222534, No Iterations 2
GAMG:  Solving for p, Initial residual = 0.0143931, Final residual = 0.00106165, No Iterations 8
time step continuity errors : sum local = 0.000719073, global = -1.87392e-05, cumulative = 2.12722e-06
DILUPBiCG:  Solving for omega, Initial residual = 0.0159048, Final residual = 4.83933e-06, No Iterations 4
DILUPBiCG:  Solving for k, Initial residual = 0.012551, Final residual = 2.15698e-05, No Iterations 2
bounding k, min: -0.00080034 max: 1.08585 average: 0.0263402
ExecutionTime = 4.69 s  ClockTime = 5 s

Time = 16

DILUPBiCG:  Solving for Ux, Initial residual = 0.00969499, Final residual = 1.49788e-05, No Iterations 2
DILUPBiCG:  Solving for Uy, Initial residual = 0.0269645, Final residual = 0.000217779, No Iterations 2
DILUPBiCG:  Solving for Uz, Initial residual = 0.265691, Final residual = 0.000306212, No Iterations 2
GAMG:  Solving for p, Initial residual = 0.0242572, Final residual = 0.00210166, No Iterations 8
time step continuity errors : sum local = 0.000798357, global = -2.3234e-05, cumulative = -2.11067e-05
DILUPBiCG:  Solving for omega, Initial residual = 0.0134161, Final residual = 6.65495e-05, No Iterations 3
DILUPBiCG:  Solving for k, Initial residual = 0.0124342, Final residual = 2.14256e-05, No Iterations 2
bounding k, min: -0.000942845 max: 1.07331 average: 0.0287322
ExecutionTime = 4.94 s  ClockTime = 5 s

Time = 17

DILUPBiCG:  Solving for Ux, Initial residual = 0.00365064, Final residual = 1.00822e-05, No Iterations 2
DILUPBiCG:  Solving for Uy, Initial residual = 0.024466, Final residual = 2.37083e-06, No Iterations 3
DILUPBiCG:  Solving for Uz, Initial residual = 0.256003, Final residual = 0.000282882, No Iterations 2
GAMG:  Solving for p, Initial residual = 0.168764, Final residual = 0.0122897, No Iterations 8
time step continuity errors : sum local = 0.000645576, global = -1.82305e-05, cumulative = -3.93372e-05
DILUPBiCG:  Solving for omega, Initial residual = 0.010512, Final residual = 3.66444e-05, No Iterations 3
DILUPBiCG:  Solving for k, Initial residual = 0.00970429, Final residual = 6.17347e-05, No Iterations 2
bounding k, min: -0.0013179 max: 1.06739 average: 0.0309476
ExecutionTime = 5.19 s  ClockTime = 6 s

Time = 18

DILUPBiCG:  Solving for Ux, Initial residual = 0.00671301, Final residual = 1.20135e-05, No Iterations 2
DILUPBiCG:  Solving for Uy, Initial residual = 0.0241024, Final residual = 2.06044e-06, No Iterations 3
DILUPBiCG:  Solving for Uz, Initial residual = 0.200384, Final residual = 0.000231232, No Iterations 2
GAMG:  Solving for p, Initial residual = 0.0383062, Final residual = 0.00277164, No Iterations 7
time step continuity errors : sum local = 0.000645436, global = -3.32441e-06, cumulative = -4.26616e-05
DILUPBiCG:  Solving for omega, Initial residual = 0.00886556, Final residual = 2.45684e-05, No Iterations 3
DILUPBiCG:  Solving for k, Initial residual = 0.00862247, Final residual = 4.70549e-05, No Iterations 2
bounding k, min: -0.00146362 max: 1.16119 average: 0.0333457
ExecutionTime = 5.45 s  ClockTime = 6 s

Time = 19

DILUPBiCG:  Solving for Ux, Initial residual = 0.00874383, Final residual = 1.65798e-05, No Iterations 2
DILUPBiCG:  Solving for Uy, Initial residual = 0.0249569, Final residual = 1.79656e-06, No Iterations 3
DILUPBiCG:  Solving for Uz, Initial residual = 0.157523, Final residual = 0.000187869, No Iterations 2
GAMG:  Solving for p, Initial residual = 0.0243259, Final residual = 0.00177339, No Iterations 5
time step continuity errors : sum local = 0.000625673, global = 1.27437e-05, cumulative = -2.9918e-05
DILUPBiCG:  Solving for omega, Initial residual = 0.00805042, Final residual = 1.96976e-05, No Iterations 3
DILUPBiCG:  Solving for k, Initial residual = 0.0080149, Final residual = 5.3542e-05, No Iterations 2
bounding k, min: -0.00357204 max: 1.27063 average: 0.0358738
ExecutionTime = 5.66 s  ClockTime = 6 s

Time = 20

DILUPBiCG:  Solving for Ux, Initial residual = 0.0085279, Final residual = 1.62323e-05, No Iterations 2
DILUPBiCG:  Solving for Uy, Initial residual = 0.0249094, Final residual = 7.54251e-05, No Iterations 2
DILUPBiCG:  Solving for Uz, Initial residual = 0.160931, Final residual = 0.000149796, No Iterations 2
GAMG:  Solving for p, Initial residual = 0.0215944, Final residual = 0.00144978, No Iterations 7
time step continuity errors : sum local = 0.000505403, global = -1.0212e-05, cumulative = -4.01299e-05
DILUPBiCG:  Solving for omega, Initial residual = 0.00720231, Final residual = 1.44069e-05, No Iterations 3
DILUPBiCG:  Solving for k, Initial residual = 0.00761221, Final residual = 5.74465e-07, No Iterations 3
bounding k, min: -0.00160244 max: 1.36584 average: 0.0385149
ExecutionTime = 5.95 s  ClockTime = 6 s

Time = 21

DILUPBiCG:  Solving for Ux, Initial residual = 0.00682989, Final residual = 1.25436e-05, No Iterations 2
DILUPBiCG:  Solving for Uy, Initial residual = 0.0241705, Final residual = 4.38137e-05, No Iterations 2
DILUPBiCG:  Solving for Uz, Initial residual = 0.218978, Final residual = 0.000265205, No Iterations 2
GAMG:  Solving for p, Initial residual = 0.024786, Final residual = 0.00231783, No Iterations 7
time step continuity errors : sum local = 0.000592477, global = -1.11426e-05, cumulative = -5.12725e-05
DILUPBiCG:  Solving for omega, Initial residual = 0.00633243, Final residual = 1.09607e-05, No Iterations 3
DILUPBiCG:  Solving for k, Initial residual = 0.00691232, Final residual = 6.6724e-05, No Iterations 2
bounding k, min: -0.00181809 max: 1.44789 average: 0.0411749
ExecutionTime = 6.24 s  ClockTime = 7 s

Time = 22

DILUPBiCG:  Solving for Ux, Initial residual = 0.00470648, Final residual = 8.27625e-06, No Iterations 2
DILUPBiCG:  Solving for Uy, Initial residual = 0.022923, Final residual = 4.07472e-05, No Iterations 2
DILUPBiCG:  Solving for Uz, Initial residual = 0.250057, Final residual = 0.000291346, No Iterations 2
GAMG:  Solving for p, Initial residual = 0.0415369, Final residual = 0.00392234, No Iterations 7
time step continuity errors : sum local = 0.00050341, global = -1.01343e-05, cumulative = -6.14068e-05
DILUPBiCG:  Solving for omega, Initial residual = 0.00571802, Final residual = 8.42635e-06, No Iterations 3
DILUPBiCG:  Solving for k, Initial residual = 0.00630897, Final residual = 6.84223e-07, No Iterations 3
bounding k, min: -0.00188382 max: 1.51546 average: 0.0437731
ExecutionTime = 6.55 s  ClockTime = 7 s

Time = 23

DILUPBiCG:  Solving for Ux, Initial residual = 0.00306452, Final residual = 6.3273e-06, No Iterations 2
DILUPBiCG:  Solving for Uy, Initial residual = 0.0221449, Final residual = 4.19066e-05, No Iterations 2
DILUPBiCG:  Solving for Uz, Initial residual = 0.212005, Final residual = 0.000232877, No Iterations 2
GAMG:  Solving for p, Initial residual = 0.269743, Final residual = 0.0187383, No Iterations 7
time step continuity errors : sum local = 0.000320876, global = -7.18187e-06, cumulative = -6.85887e-05
DILUPBiCG:  Solving for omega, Initial residual = 0.00518386, Final residual = 5.30188e-06, No Iterations 3
DILUPBiCG:  Solving for k, Initial residual = 0.00574848, Final residual = 8.62019e-07, No Iterations 3
bounding k, min: -0.00192276 max: 1.56864 average: 0.0464058
ExecutionTime = 6.83 s  ClockTime = 7 s

Time = 24

DILUPBiCG:  Solving for Ux, Initial residual = 0.00360366, Final residual = 1.27132e-05, No Iterations 2
DILUPBiCG:  Solving for Uy, Initial residual = 0.0217453, Final residual = 4.07482e-05, No Iterations 2
DILUPBiCG:  Solving for Uz, Initial residual = 0.158801, Final residual = 0.000198441, No Iterations 2
GAMG:  Solving for p, Initial residual = 0.0538692, Final residual = 0.00471455, No Iterations 5
time step continuity errors : sum local = 0.000404909, global = -4.44103e-06, cumulative = -7.30297e-05
DILUPBiCG:  Solving for omega, Initial residual = 0.00483129, Final residual = 3.05914e-06, No Iterations 3
DILUPBiCG:  Solving for k, Initial residual = 0.00534049, Final residual = 1.14173e-06, No Iterations 3
bounding k, min: -0.00203223 max: 1.61272 average: 0.0490457
ExecutionTime = 7.08 s  ClockTime = 7 s

Time = 25

DILUPBiCG:  Solving for Ux, Initial residual = 0.00368557, Final residual = 7.6376e-06, No Iterations 2
DILUPBiCG:  Solving for Uy, Initial residual = 0.0213928, Final residual = 3.69736e-05, No Iterations 2
DILUPBiCG:  Solving for Uz, Initial residual = 0.138502, Final residual = 0.000222855, No Iterations 2
GAMG:  Solving for p, Initial residual = 0.0465359, Final residual = 0.00449001, No Iterations 5
time step continuity errors : sum local = 0.000463861, global = 5.96373e-06, cumulative = -6.7066e-05
DILUPBiCG:  Solving for omega, Initial residual = 0.00451856, Final residual = 1.83923e-06, No Iterations 3
DILUPBiCG:  Solving for k, Initial residual = 0.00502197, Final residual = 1.6872e-06, No Iterations 3
bounding k, min: -0.00197625 max: 1.64535 average: 0.0517224
ExecutionTime = 7.35 s  ClockTime = 8 s

Time = 26

DILUPBiCG:  Solving for Ux, Initial residual = 0.00331851, Final residual = 7.94897e-06, No Iterations 2
DILUPBiCG:  Solving for Uy, Initial residual = 0.0209218, Final residual = 3.06415e-05, No Iterations 2
DILUPBiCG:  Solving for Uz, Initial residual = 0.164813, Final residual = 0.000273421, No Iterations 2
GAMG:  Solving for p, Initial residual = 0.0591375, Final residual = 0.00373253, No Iterations 6
time step continuity errors : sum local = 0.000298827, global = -9.6587e-06, cumulative = -7.67247e-05
DILUPBiCG:  Solving for omega, Initial residual = 0.0041714, Final residual = 1.52971e-06, No Iterations 3
DILUPBiCG:  Solving for k, Initial residual = 0.00463599, Final residual = 4.05084e-06, No Iterations 3
bounding k, min: -0.0019183 max: 1.66912 average: 0.0543998
ExecutionTime = 7.61 s  ClockTime = 8 s

Time = 27

DILUPBiCG:  Solving for Ux, Initial residual = 0.00278888, Final residual = 8.16003e-06, No Iterations 2
DILUPBiCG:  Solving for Uy, Initial residual = 0.0204151, Final residual = 4.29276e-05, No Iterations 2
DILUPBiCG:  Solving for Uz, Initial residual = 0.198831, Final residual = 0.000303818, No Iterations 2
GAMG:  Solving for p, Initial residual = 0.134504, Final residual = 0.00866584, No Iterations 6
time step continuity errors : sum local = 0.000307119, global = -1.19784e-05, cumulative = -8.87031e-05
DILUPBiCG:  Solving for omega, Initial residual = 0.00375203, Final residual = 1.48681e-06, No Iterations 3
DILUPBiCG:  Solving for k, Initial residual = 0.00427275, Final residual = 7.78597e-06, No Iterations 3
bounding k, min: -0.00191584 max: 1.68987 average: 0.0570399
ExecutionTime = 7.86 s  ClockTime = 8 s

Time = 28

DILUPBiCG:  Solving for Ux, Initial residual = 0.0028275, Final residual = 5.96599e-06, No Iterations 2
DILUPBiCG:  Solving for Uy, Initial residual = 0.0200905, Final residual = 3.37292e-05, No Iterations 2
DILUPBiCG:  Solving for Uz, Initial residual = 0.193887, Final residual = 0.000290463, No Iterations 2
GAMG:  Solving for p, Initial residual = 0.130061, Final residual = 0.00712568, No Iterations 6
time step continuity errors : sum local = 0.000253476, global = -1.04029e-05, cumulative = -9.9106e-05
DILUPBiCG:  Solving for omega, Initial residual = 0.00337094, Final residual = 1.25398e-06, No Iterations 3
DILUPBiCG:  Solving for k, Initial residual = 0.00393786, Final residual = 3.95306e-07, No Iterations 4
bounding k, min: -0.00186837 max: 1.70424 average: 0.0595837
ExecutionTime = 8.12 s  ClockTime = 9 s

Time = 29

DILUPBiCG:  Solving for Ux, Initial residual = 0.00315495, Final residual = 7.6288e-06, No Iterations 2
DILUPBiCG:  Solving for Uy, Initial residual = 0.0199952, Final residual = 3.29362e-05, No Iterations 2
DILUPBiCG:  Solving for Uz, Initial residual = 0.160935, Final residual = 0.000237649, No Iterations 2
GAMG:  Solving for p, Initial residual = 0.0619224, Final residual = 0.00526863, No Iterations 5
time step continuity errors : sum local = 0.00036619, global = 3.94825e-06, cumulative = -9.51577e-05
DILUPBiCG:  Solving for omega, Initial residual = 0.00305441, Final residual = 1.32109e-06, No Iterations 3
DILUPBiCG:  Solving for k, Initial residual = 0.00359483, Final residual = 1.61648e-05, No Iterations 3
bounding k, min: -0.00187092 max: 1.71362 average: 0.0620415
ExecutionTime = 8.37 s  ClockTime = 9 s

Time = 30

DILUPBiCG:  Solving for Ux, Initial residual = 0.00327147, Final residual = 9.09162e-06, No Iterations 2
DILUPBiCG:  Solving for Uy, Initial residual = 0.0198964, Final residual = 3.89024e-05, No Iterations 2
DILUPBiCG:  Solving for Uz, Initial residual = 0.138166, Final residual = 0.000299672, No Iterations 2
GAMG:  Solving for p, Initial residual = 0.0452827, Final residual = 0.00382622, No Iterations 4
time step continuity errors : sum local = 0.000324571, global = 7.02724e-06, cumulative = -8.81305e-05
DILUPBiCG:  Solving for omega, Initial residual = 0.00282709, Final residual = 1.54436e-06, No Iterations 3
DILUPBiCG:  Solving for k, Initial residual = 0.00347654, Final residual = 5.14859e-06, No Iterations 3
bounding k, min: -0.00184206 max: 1.71903 average: 0.0644227
ExecutionTime = 8.59 s  ClockTime = 9 s

Time = 31

DILUPBiCG:  Solving for Ux, Initial residual = 0.00318061, Final residual = 1.009e-05, No Iterations 2
DILUPBiCG:  Solving for Uy, Initial residual = 0.0196726, Final residual = 4.33606e-05, No Iterations 2
DILUPBiCG:  Solving for Uz, Initial residual = 0.138214, Final residual = 0.00049428, No Iterations 2
GAMG:  Solving for p, Initial residual = 0.0396102, Final residual = 0.00353149, No Iterations 5
time step continuity errors : sum local = 0.000292219, global = -4.12376e-06, cumulative = -9.22542e-05
DILUPBiCG:  Solving for omega, Initial residual = 0.00263697, Final residual = 1.55257e-06, No Iterations 3
DILUPBiCG:  Solving for k, Initial residual = 0.0033564, Final residual = 3.27454e-05, No Iterations 3
bounding k, min: -0.00189426 max: 1.72056 average: 0.0666797
ExecutionTime = 8.84 s  ClockTime = 9 s

Time = 32

DILUPBiCG:  Solving for Ux, Initial residual = 0.00294273, Final residual = 1.06746e-05, No Iterations 2
DILUPBiCG:  Solving for Uy, Initial residual = 0.0193077, Final residual = 4.48603e-05, No Iterations 2
DILUPBiCG:  Solving for Uz, Initial residual = 0.157171, Final residual = 0.000306406, No Iterations 2
GAMG:  Solving for p, Initial residual = 0.0417799, Final residual = 0.002059, No Iterations 6
time step continuity errors : sum local = 0.000139862, global = 3.94768e-06, cumulative = -8.83065e-05
DILUPBiCG:  Solving for omega, Initial residual = 0.00243987, Final residual = 7.02672e-06, No Iterations 3
DILUPBiCG:  Solving for k, Initial residual = 0.00319486, Final residual = 5.65702e-06, No Iterations 3
bounding k, min: -0.00182416 max: 1.71894 average: 0.0688573
ExecutionTime = 9.09 s  ClockTime = 9 s

Time = 33

DILUPBiCG:  Solving for Ux, Initial residual = 0.00266842, Final residual = 1.12188e-05, No Iterations 2
DILUPBiCG:  Solving for Uy, Initial residual = 0.0189381, Final residual = 4.50567e-05, No Iterations 2
DILUPBiCG:  Solving for Uz, Initial residual = 0.153171, Final residual = 0.00106666, No Iterations 2
GAMG:  Solving for p, Initial residual = 0.0538527, Final residual = 0.00510751, No Iterations 5
time step continuity errors : sum local = 0.000249483, global = -2.3053e-06, cumulative = -9.06118e-05
DILUPBiCG:  Solving for omega, Initial residual = 0.00223258, Final residual = 2.77643e-06, No Iterations 3
DILUPBiCG:  Solving for k, Initial residual = 0.00305956, Final residual = 2.423e-05, No Iterations 3
bounding k, min: -0.00187087 max: 1.71497 average: 0.0709654
ExecutionTime = 9.34 s  ClockTime = 10 s

Time = 34

DILUPBiCG:  Solving for Ux, Initial residual = 0.00243657, Final residual = 1.2171e-05, No Iterations 2
DILUPBiCG:  Solving for Uy, Initial residual = 0.0186151, Final residual = 5.28115e-05, No Iterations 2
DILUPBiCG:  Solving for Uz, Initial residual = 0.138202, Final residual = 0.000421881, No Iterations 2
GAMG:  Solving for p, Initial residual = 0.0823782, Final residual = 0.00577191, No Iterations 5
time step continuity errors : sum local = 0.000186386, global = -1.03261e-06, cumulative = -9.16444e-05
DILUPBiCG:  Solving for omega, Initial residual = 0.0020387, Final residual = 2.10316e-06, No Iterations 3
DILUPBiCG:  Solving for k, Initial residual = 0.00288975, Final residual = 2.66879e-05, No Iterations 4
bounding k, min: -0.0017453 max: 1.70948 average: 0.0729467
ExecutionTime = 9.57 s  ClockTime = 10 s

Time = 35

DILUPBiCG:  Solving for Ux, Initial residual = 0.00228426, Final residual = 1.62121e-05, No Iterations 2
DILUPBiCG:  Solving for Uy, Initial residual = 0.0183596, Final residual = 6.56265e-05, No Iterations 2
DILUPBiCG:  Solving for Uz, Initial residual = 0.119332, Final residual = 0.000349537, No Iterations 2
GAMG:  Solving for p, Initial residual = 0.121203, Final residual = 0.00964391, No Iterations 4
time step continuity errors : sum local = 0.000214996, global = 1.57183e-07, cumulative = -9.14873e-05
DILUPBiCG:  Solving for omega, Initial residual = 0.00189111, Final residual = 1.52689e-05, No Iterations 4
DILUPBiCG:  Solving for k, Initial residual = 0.00269457, Final residual = 2.19252e-05, No Iterations 11
bounding k, min: -0.00185804 max: 1.70256 average: 0.0748206
ExecutionTime = 9.82 s  ClockTime = 10 s

Time = 36

DILUPBiCG:  Solving for Ux, Initial residual = 0.00220712, Final residual = 3.3399e-06, No Iterations 3
DILUPBiCG:  Solving for Uy, Initial residual = 0.0181814, Final residual = 8.5624e-05, No Iterations 2
DILUPBiCG:  Solving for Uz, Initial residual = 0.1169, Final residual = 0.000345063, No Iterations 2
GAMG:  Solving for p, Initial residual = 0.136094, Final residual = 0.012339, No Iterations 4
time step continuity errors : sum local = 0.000243709, global = 3.02601e-06, cumulative = -8.84613e-05
DILUPBiCG:  Solving for omega, Initial residual = 0.00174675, Final residual = 9.63309e-06, No Iterations 7
DILUPBiCG:  Solving for k, Initial residual = 0.00253378, Final residual = 5.22459e-06, No Iterations 3
bounding k, min: -0.00182923 max: 1.6948 average: 0.0766242
ExecutionTime = 10.06 s  ClockTime = 10 s

Time = 37

DILUPBiCG:  Solving for Ux, Initial residual = 0.002182, Final residual = 2.1526e-05, No Iterations 2
DILUPBiCG:  Solving for Uy, Initial residual = 0.0180141, Final residual = 0.000114631, No Iterations 2
DILUPBiCG:  Solving for Uz, Initial residual = 0.134114, Final residual = 0.000343529, No Iterations 2
GAMG:  Solving for p, Initial residual = 0.112994, Final residual = 0.0102803, No Iterations 4
time step continuity errors : sum local = 0.000234255, global = -6.19444e-06, cumulative = -9.46557e-05
DILUPBiCG:  Solving for omega, Initial residual = 0.00162013, Final residual = 1.94794e-06, No Iterations 3
DILUPBiCG:  Solving for k, Initial residual = 0.00237803, Final residual = 1.45634e-05, No Iterations 4
bounding k, min: -0.00175997 max: 1.6864 average: 0.0783083
ExecutionTime = 10.31 s  ClockTime = 11 s

Time = 38

DILUPBiCG:  Solving for Ux, Initial residual = 0.00218432, Final residual = 1.90533e-05, No Iterations 2
DILUPBiCG:  Solving for Uy, Initial residual = 0.0178893, Final residual = 0.00015782, No Iterations 2
DILUPBiCG:  Solving for Uz, Initial residual = 0.148606, Final residual = 0.000414676, No Iterations 2
GAMG:  Solving for p, Initial residual = 0.0860653, Final residual = 0.00834284, No Iterations 4
time step continuity errors : sum local = 0.000240145, global = -6.27542e-06, cumulative = -0.000100931
DILUPBiCG:  Solving for omega, Initial residual = 0.00149238, Final residual = 3.24715e-06, No Iterations 3
DILUPBiCG:  Solving for k, Initial residual = 0.0021972, Final residual = 5.78116e-06, No Iterations 3
bounding k, min: -0.00181933 max: 1.67738 average: 0.0798887
ExecutionTime = 10.54 s  ClockTime = 11 s

Time = 39

DILUPBiCG:  Solving for Ux, Initial residual = 0.00219344, Final residual = 1.18869e-06, No Iterations 3
DILUPBiCG:  Solving for Uy, Initial residual = 0.0177721, Final residual = 3.68147e-06, No Iterations 3
DILUPBiCG:  Solving for Uz, Initial residual = 0.140567, Final residual = 0.000370241, No Iterations 2
GAMG:  Solving for p, Initial residual = 0.0651852, Final residual = 0.00594237, No Iterations 4
time step continuity errors : sum local = 0.000208646, global = -5.60566e-06, cumulative = -0.000106537
DILUPBiCG:  Solving for omega, Initial residual = 0.00137333, Final residual = 9.10392e-06, No Iterations 4
DILUPBiCG:  Solving for k, Initial residual = 0.00206243, Final residual = 2.70778e-06, No Iterations 3
bounding k, min: -0.00180787 max: 1.66815 average: 0.0813974
ExecutionTime = 10.79 s  ClockTime = 11 s

Time = 40

DILUPBiCG:  Solving for Ux, Initial residual = 0.00219067, Final residual = 1.15589e-06, No Iterations 3
DILUPBiCG:  Solving for Uy, Initial residual = 0.0176629, Final residual = 3.87176e-06, No Iterations 3
DILUPBiCG:  Solving for Uz, Initial residual = 0.117049, Final residual = 0.000256319, No Iterations 2
GAMG:  Solving for p, Initial residual = 0.0532505, Final residual = 0.00498547, No Iterations 4
time step continuity errors : sum local = 0.000198186, global = -4.08747e-06, cumulative = -0.000110624
DILUPBiCG:  Solving for omega, Initial residual = 0.00127195, Final residual = 1.06905e-06, No Iterations 3
DILUPBiCG:  Solving for k, Initial residual = 0.00193997, Final residual = 8.3501e-06, No Iterations 4
bounding k, min: -0.00177783 max: 1.65883 average: 0.0827922
ExecutionTime = 11.01 s  ClockTime = 11 s

Time = 41

DILUPBiCG:  Solving for Ux, Initial residual = 0.00216459, Final residual = 1.19281e-06, No Iterations 3
DILUPBiCG:  Solving for Uy, Initial residual = 0.0175246, Final residual = 4.29048e-06, No Iterations 3
DILUPBiCG:  Solving for Uz, Initial residual = 0.100847, Final residual = 2.27568e-05, No Iterations 3
GAMG:  Solving for p, Initial residual = 0.0463723, Final residual = 0.0034344, No Iterations 4
time step continuity errors : sum local = 0.000142973, global = 3.90791e-06, cumulative = -0.000106716
DILUPBiCG:  Solving for omega, Initial residual = 0.00118992, Final residual = 9.72491e-07, No Iterations 3
DILUPBiCG:  Solving for k, Initial residual = 0.0018183, Final residual = 3.05204e-06, No Iterations 3
bounding k, min: -0.00178863 max: 1.64956 average: 0.0841252
ExecutionTime = 11.23 s  ClockTime = 12 s

Time = 42

DILUPBiCG:  Solving for Ux, Initial residual = 0.00212149, Final residual = 1.25421e-06, No Iterations 3
DILUPBiCG:  Solving for Uy, Initial residual = 0.0173739, Final residual = 4.83048e-06, No Iterations 3
DILUPBiCG:  Solving for Uz, Initial residual = 0.101489, Final residual = 0.000420969, No Iterations 2
GAMG:  Solving for p, Initial residual = 0.0419334, Final residual = 0.00297982, No Iterations 4
time step continuity errors : sum local = 0.00012361, global = 2.65335e-06, cumulative = -0.000104063
DILUPBiCG:  Solving for omega, Initial residual = 0.0011113, Final residual = 7.79812e-06, No Iterations 4
DILUPBiCG:  Solving for k, Initial residual = 0.00174173, Final residual = 4.56351e-06, No Iterations 3
bounding k, min: -0.00179478 max: 1.6405 average: 0.08543
ExecutionTime = 11.46 s  ClockTime = 12 s

Time = 43

DILUPBiCG:  Solving for Ux, Initial residual = 0.00206155, Final residual = 1.37691e-06, No Iterations 3
DILUPBiCG:  Solving for Uy, Initial residual = 0.0172116, Final residual = 5.36089e-06, No Iterations 3
DILUPBiCG:  Solving for Uz, Initial residual = 0.110249, Final residual = 0.000633282, No Iterations 2
GAMG:  Solving for p, Initial residual = 0.041849, Final residual = 0.00317647, No Iterations 4
time step continuity errors : sum local = 0.000124201, global = 2.66887e-06, cumulative = -0.000101394
DILUPBiCG:  Solving for omega, Initial residual = 0.00103606, Final residual = 3.06331e-06, No Iterations 3
DILUPBiCG:  Solving for k, Initial residual = 0.00167033, Final residual = 1.00216e-05, No Iterations 3
bounding k, min: -0.00176123 max: 1.63182 average: 0.0866529
ExecutionTime = 11.7 s  ClockTime = 12 s

Time = 44

DILUPBiCG:  Solving for Ux, Initial residual = 0.00199666, Final residual = 1.69902e-06, No Iterations 3
DILUPBiCG:  Solving for Uy, Initial residual = 0.0170479, Final residual = 5.66408e-06, No Iterations 3
DILUPBiCG:  Solving for Uz, Initial residual = 0.111736, Final residual = 0.00106928, No Iterations 2
GAMG:  Solving for p, Initial residual = 0.0438392, Final residual = 0.00318211, No Iterations 4
time step continuity errors : sum local = 0.000114441, global = 2.4503e-06, cumulative = -9.89438e-05
DILUPBiCG:  Solving for omega, Initial residual = 0.000957754, Final residual = 1.69337e-06, No Iterations 3
DILUPBiCG:  Solving for k, Initial residual = 0.00157978, Final residual = 5.54986e-06, No Iterations 3
bounding k, min: -0.00176439 max: 1.62343 average: 0.0878231
ExecutionTime = 11.93 s  ClockTime = 12 s

Time = 45

DILUPBiCG:  Solving for Ux, Initial residual = 0.00193695, Final residual = 1.80452e-05, No Iterations 2
DILUPBiCG:  Solving for Uy, Initial residual = 0.0169138, Final residual = 5.43741e-06, No Iterations 3
DILUPBiCG:  Solving for Uz, Initial residual = 0.104482, Final residual = 0.000534454, No Iterations 2
GAMG:  Solving for p, Initial residual = 0.048665, Final residual = 0.00413755, No Iterations 4
time step continuity errors : sum local = 0.000137096, global = -3.96582e-08, cumulative = -9.89835e-05
DILUPBiCG:  Solving for omega, Initial residual = 0.00088301, Final residual = 2.53051e-06, No Iterations 3
DILUPBiCG:  Solving for k, Initial residual = 0.001512, Final residual = 1.14418e-05, No Iterations 3
bounding k, min: -0.00176262 max: 1.61549 average: 0.0889514
ExecutionTime = 12.16 s  ClockTime = 13 s

Time = 46

DILUPBiCG:  Solving for Ux, Initial residual = 0.00188652, Final residual = 1.68904e-05, No Iterations 2
DILUPBiCG:  Solving for Uy, Initial residual = 0.0167723, Final residual = 4.77981e-06, No Iterations 3
DILUPBiCG:  Solving for Uz, Initial residual = 0.0975704, Final residual = 0.000199084, No Iterations 2
GAMG:  Solving for p, Initial residual = 0.0512409, Final residual = 0.00336076, No Iterations 4
time step continuity errors : sum local = 0.000104765, global = 1.53007e-06, cumulative = -9.74534e-05
DILUPBiCG:  Solving for omega, Initial residual = 0.000822069, Final residual = 2.15371e-07, No Iterations 4
DILUPBiCG:  Solving for k, Initial residual = 0.00144051, Final residual = 7.73923e-06, No Iterations 3
bounding k, min: -0.00176293 max: 1.60789 average: 0.0899868
ExecutionTime = 12.37 s  ClockTime = 13 s

Time = 47

DILUPBiCG:  Solving for Ux, Initial residual = 0.0018474, Final residual = 1.58093e-05, No Iterations 2
DILUPBiCG:  Solving for Uy, Initial residual = 0.0166794, Final residual = 3.93638e-06, No Iterations 3
DILUPBiCG:  Solving for Uz, Initial residual = 0.0972795, Final residual = 0.000143288, No Iterations 2
GAMG:  Solving for p, Initial residual = 0.050269, Final residual = 0.0030562, No Iterations 4
time step continuity errors : sum local = 9.29458e-05, global = -1.6941e-06, cumulative = -9.91475e-05
DILUPBiCG:  Solving for omega, Initial residual = 0.000767285, Final residual = 1.62667e-06, No Iterations 3
DILUPBiCG:  Solving for k, Initial residual = 0.00135864, Final residual = 1.35308e-05, No Iterations 3
bounding k, min: -0.00172218 max: 1.60068 average: 0.0909765
ExecutionTime = 12.59 s  ClockTime = 13 s

Time = 48

DILUPBiCG:  Solving for Ux, Initial residual = 0.00181591, Final residual = 1.55012e-05, No Iterations 2
DILUPBiCG:  Solving for Uy, Initial residual = 0.0165729, Final residual = 3.19465e-06, No Iterations 3
DILUPBiCG:  Solving for Uz, Initial residual = 0.102715, Final residual = 0.000131699, No Iterations 2
GAMG:  Solving for p, Initial residual = 0.0474132, Final residual = 0.00333519, No Iterations 4
time step continuity errors : sum local = 0.000101393, global = -1.49794e-06, cumulative = -0.000100645
DILUPBiCG:  Solving for omega, Initial residual = 0.000716493, Final residual = 8.09767e-07, No Iterations 3
DILUPBiCG:  Solving for k, Initial residual = 0.00131294, Final residual = 3.43643e-07, No Iterations 4
bounding k, min: -0.00179653 max: 1.59374 average: 0.0919391
ExecutionTime = 12.79 s  ClockTime = 13 s

Time = 49

DILUPBiCG:  Solving for Ux, Initial residual = 0.00179033, Final residual = 1.64196e-05, No Iterations 2
DILUPBiCG:  Solving for Uy, Initial residual = 0.0164883, Final residual = 0.000100645, No Iterations 2
DILUPBiCG:  Solving for Uz, Initial residual = 0.105147, Final residual = 0.000144487, No Iterations 2
GAMG:  Solving for p, Initial residual = 0.0443128, Final residual = 0.00351052, No Iterations 4
time step continuity errors : sum local = 0.000108906, global = -2.23741e-06, cumulative = -0.000102883
DILUPBiCG:  Solving for omega, Initial residual = 0.00067043, Final residual = 3.12749e-06, No Iterations 3
DILUPBiCG:  Solving for k, Initial residual = 0.00126005, Final residual = 1.07236e-05, No Iterations 3
bounding k, min: -0.00177329 max: 1.58716 average: 0.0928214
ExecutionTime = 13.01 s  ClockTime = 13 s

Time = 50

DILUPBiCG:  Solving for Ux, Initial residual = 0.00176687, Final residual = 1.65794e-05, No Iterations 2
DILUPBiCG:  Solving for Uy, Initial residual = 0.0163973, Final residual = 4.86367e-05, No Iterations 2
DILUPBiCG:  Solving for Uz, Initial residual = 0.0998083, Final residual = 0.000128828, No Iterations 2
GAMG:  Solving for p, Initial residual = 0.0408411, Final residual = 0.00311053, No Iterations 4
time step continuity errors : sum local = 9.89917e-05, global = -1.59657e-06, cumulative = -0.000104479
DILUPBiCG:  Solving for omega, Initial residual = 0.000623202, Final residual = 1.24557e-06, No Iterations 3
DILUPBiCG:  Solving for k, Initial residual = 0.00120052, Final residual = 6.91001e-06, No Iterations 3
bounding k, min: -0.00179693 max: 1.58086 average: 0.0936678
ExecutionTime = 13.21 s  ClockTime = 14 s

Time = 51

DILUPBiCG:  Solving for Ux, Initial residual = 0.00174362, Final residual = 1.67093e-05, No Iterations 2
DILUPBiCG:  Solving for Uy, Initial residual = 0.0163094, Final residual = 3.50796e-05, No Iterations 2
DILUPBiCG:  Solving for Uz, Initial residual = 0.0889621, Final residual = 0.000115611, No Iterations 2
GAMG:  Solving for p, Initial residual = 0.0385807, Final residual = 0.00318601, No Iterations 4
time step continuity errors : sum local = 0.000103443, global = 9.27287e-07, cumulative = -0.000103552
DILUPBiCG:  Solving for omega, Initial residual = 0.000577904, Final residual = 7.54956e-06, No Iterations 3
DILUPBiCG:  Solving for k, Initial residual = 0.00117151, Final residual = 4.44647e-06, No Iterations 3
bounding k, min: -0.00180775 max: 1.57488 average: 0.0944991
ExecutionTime = 13.45 s  ClockTime = 14 s

Time = 52

DILUPBiCG:  Solving for Ux, Initial residual = 0.00171945, Final residual = 1.64008e-05, No Iterations 2
DILUPBiCG:  Solving for Uy, Initial residual = 0.0162353, Final residual = 3.14893e-05, No Iterations 2
DILUPBiCG:  Solving for Uz, Initial residual = 0.0790803, Final residual = 0.000110925, No Iterations 2
GAMG:  Solving for p, Initial residual = 0.0361417, Final residual = 0.00242313, No Iterations 4
time step continuity errors : sum local = 7.93161e-05, global = 1.03002e-06, cumulative = -0.000102522
DILUPBiCG:  Solving for omega, Initial residual = 0.000541067, Final residual = 9.51509e-07, No Iterations 3
DILUPBiCG:  Solving for k, Initial residual = 0.00113718, Final residual = 3.30127e-06, No Iterations 3
bounding k, min: -0.00182718 max: 1.56919 average: 0.0952607
ExecutionTime = 13.68 s  ClockTime = 14 s

Time = 53

DILUPBiCG:  Solving for Ux, Initial residual = 0.00169442, Final residual = 1.56358e-05, No Iterations 2
DILUPBiCG:  Solving for Uy, Initial residual = 0.0161385, Final residual = 3.15561e-05, No Iterations 2
DILUPBiCG:  Solving for Uz, Initial residual = 0.0742644, Final residual = 0.000122056, No Iterations 2
GAMG:  Solving for p, Initial residual = 0.0339784, Final residual = 0.00237863, No Iterations 4
time step continuity errors : sum local = 7.77533e-05, global = 1.06194e-06, cumulative = -0.00010146
DILUPBiCG:  Solving for omega, Initial residual = 0.000505467, Final residual = 9.6971e-06, No Iterations 2
DILUPBiCG:  Solving for k, Initial residual = 0.00108752, Final residual = 4.59772e-06, No Iterations 3
bounding k, min: -0.00175416 max: 1.5638 average: 0.0959972
ExecutionTime = 13.92 s  ClockTime = 14 s

Time = 54

DILUPBiCG:  Solving for Ux, Initial residual = 0.00166662, Final residual = 1.44775e-05, No Iterations 2
DILUPBiCG:  Solving for Uy, Initial residual = 0.0160749, Final residual = 3.33423e-05, No Iterations 2
DILUPBiCG:  Solving for Uz, Initial residual = 0.076946, Final residual = 0.000144924, No Iterations 2
GAMG:  Solving for p, Initial residual = 0.0331586, Final residual = 0.00237586, No Iterations 4
time step continuity errors : sum local = 7.64241e-05, global = 1.21359e-06, cumulative = -0.000100247
DILUPBiCG:  Solving for omega, Initial residual = 0.000471461, Final residual = 3.34089e-06, No Iterations 3
DILUPBiCG:  Solving for k, Initial residual = 0.00106751, Final residual = 1.64016e-06, No Iterations 3
bounding k, min: -0.00180842 max: 1.55866 average: 0.0967271
ExecutionTime = 14.16 s  ClockTime = 15 s

Time = 55

DILUPBiCG:  Solving for Ux, Initial residual = 0.00163806, Final residual = 1.35165e-05, No Iterations 2
DILUPBiCG:  Solving for Uy, Initial residual = 0.0159867, Final residual = 3.5735e-05, No Iterations 2
DILUPBiCG:  Solving for Uz, Initial residual = 0.0790022, Final residual = 0.0001472, No Iterations 2
GAMG:  Solving for p, Initial residual = 0.0325013, Final residual = 0.00191813, No Iterations 4
time step continuity errors : sum local = 6.02397e-05, global = 1.46342e-06, cumulative = -9.87832e-05
DILUPBiCG:  Solving for omega, Initial residual = 0.000441815, Final residual = 8.59824e-06, No Iterations 2
DILUPBiCG:  Solving for k, Initial residual = 0.00103818, Final residual = 1.84934e-06, No Iterations 3
bounding k, min: -0.0018272 max: 1.55376 average: 0.0973934
ExecutionTime = 14.39 s  ClockTime = 15 s

Time = 56

DILUPBiCG:  Solving for Ux, Initial residual = 0.00161073, Final residual = 1.24699e-05, No Iterations 2
DILUPBiCG:  Solving for Uy, Initial residual = 0.0159106, Final residual = 3.99065e-05, No Iterations 2
DILUPBiCG:  Solving for Uz, Initial residual = 0.0767376, Final residual = 0.000138266, No Iterations 2
GAMG:  Solving for p, Initial residual = 0.0318869, Final residual = 0.00224108, No Iterations 4
time step continuity errors : sum local = 6.88045e-05, global = 1.20035e-06, cumulative = -9.75828e-05
DILUPBiCG:  Solving for omega, Initial residual = 0.0004106, Final residual = 7.66554e-06, No Iterations 2
DILUPBiCG:  Solving for k, Initial residual = 0.000994691, Final residual = 8.00506e-06, No Iterations 4
bounding k, min: -0.00170445 max: 1.54916 average: 0.0980413
ExecutionTime = 14.62 s  ClockTime = 15 s

Time = 57

DILUPBiCG:  Solving for Ux, Initial residual = 0.00158419, Final residual = 1.12783e-05, No Iterations 2
DILUPBiCG:  Solving for Uy, Initial residual = 0.0158407, Final residual = 4.37222e-05, No Iterations 2
DILUPBiCG:  Solving for Uz, Initial residual = 0.0746078, Final residual = 0.000121163, No Iterations 2
GAMG:  Solving for p, Initial residual = 0.0320651, Final residual = 0.00215834, No Iterations 4
time step continuity errors : sum local = 6.48176e-05, global = 1.05348e-06, cumulative = -9.65293e-05
DILUPBiCG:  Solving for omega, Initial residual = 0.000380792, Final residual = 1.36407e-06, No Iterations 3
DILUPBiCG:  Solving for k, Initial residual = 0.000977246, Final residual = 1.73038e-06, No Iterations 3
bounding k, min: -0.00180302 max: 1.54471 average: 0.0986823
ExecutionTime = 14.85 s  ClockTime = 15 s

Time = 58

DILUPBiCG:  Solving for Ux, Initial residual = 0.00156001, Final residual = 1.02097e-05, No Iterations 2
DILUPBiCG:  Solving for Uy, Initial residual = 0.0157598, Final residual = 4.74292e-05, No Iterations 2
DILUPBiCG:  Solving for Uz, Initial residual = 0.0728482, Final residual = 0.000111897, No Iterations 2
GAMG:  Solving for p, Initial residual = 0.0316691, Final residual = 0.00253131, No Iterations 4
time step continuity errors : sum local = 7.47531e-05, global = -1.05555e-06, cumulative = -9.75849e-05
DILUPBiCG:  Solving for omega, Initial residual = 0.000356548, Final residual = 7.62741e-06, No Iterations 2
DILUPBiCG:  Solving for k, Initial residual = 0.000952096, Final residual = 1.90481e-06, No Iterations 3
bounding k, min: -0.00182027 max: 1.54049 average: 0.0992636
ExecutionTime = 15.07 s  ClockTime = 15 s

Time = 59

DILUPBiCG:  Solving for Ux, Initial residual = 0.00153746, Final residual = 9.09618e-06, No Iterations 2
DILUPBiCG:  Solving for Uy, Initial residual = 0.0157113, Final residual = 5.09733e-05, No Iterations 2
DILUPBiCG:  Solving for Uz, Initial residual = 0.072518, Final residual = 0.000140232, No Iterations 2
GAMG:  Solving for p, Initial residual = 0.0308899, Final residual = 0.00173496, No Iterations 4
time step continuity errors : sum local = 5.06802e-05, global = 1.01654e-06, cumulative = -9.65684e-05
DILUPBiCG:  Solving for omega, Initial residual = 0.000332286, Final residual = 6.51956e-06, No Iterations 2
DILUPBiCG:  Solving for k, Initial residual = 0.000912431, Final residual = 2.07084e-06, No Iterations 3
bounding k, min: -0.00178625 max: 1.53648 average: 0.0998267
ExecutionTime = 15.31 s  ClockTime = 16 s

Time = 60

DILUPBiCG:  Solving for Ux, Initial residual = 0.00151717, Final residual = 8.1522e-06, No Iterations 2
DILUPBiCG:  Solving for Uy, Initial residual = 0.0156444, Final residual = 5.3466e-05, No Iterations 2
DILUPBiCG:  Solving for Uz, Initial residual = 0.072677, Final residual = 0.000163131, No Iterations 2
GAMG:  Solving for p, Initial residual = 0.0306944, Final residual = 0.00171497, No Iterations 4
time step continuity errors : sum local = 4.9978e-05, global = 4.6974e-07, cumulative = -9.60986e-05
DILUPBiCG:  Solving for omega, Initial residual = 0.00030961, Final residual = 6.23201e-06, No Iterations 2
DILUPBiCG:  Solving for k, Initial residual = 0.000900979, Final residual = 2.48965e-06, No Iterations 3
bounding k, min: -0.00180801 max: 1.53265 average: 0.100392
ExecutionTime = 15.53 s  ClockTime = 16 s

Time = 61

DILUPBiCG:  Solving for Ux, Initial residual = 0.00149755, Final residual = 7.3833e-06, No Iterations 2
DILUPBiCG:  Solving for Uy, Initial residual = 0.0155943, Final residual = 5.84454e-05, No Iterations 2
DILUPBiCG:  Solving for Uz, Initial residual = 0.0718901, Final residual = 0.000175514, No Iterations 2
GAMG:  Solving for p, Initial residual = 0.0299122, Final residual = 0.0016939, No Iterations 4
time step continuity errors : sum local = 4.92091e-05, global = 7.95867e-07, cumulative = -9.53027e-05
DILUPBiCG:  Solving for omega, Initial residual = 0.000291301, Final residual = 6.98123e-06, No Iterations 2
DILUPBiCG:  Solving for k, Initial residual = 0.000882116, Final residual = 2.42452e-06, No Iterations 3
bounding k, min: -0.00181198 max: 1.52896 average: 0.100899
ExecutionTime = 15.77 s  ClockTime = 16 s

Time = 62

DILUPBiCG:  Solving for Ux, Initial residual = 0.00147844, Final residual = 6.74591e-06, No Iterations 2
DILUPBiCG:  Solving for Uy, Initial residual = 0.0155432, Final residual = 6.85622e-05, No Iterations 2
DILUPBiCG:  Solving for Uz, Initial residual = 0.0694534, Final residual = 0.000162714, No Iterations 2
GAMG:  Solving for p, Initial residual = 0.0290552, Final residual = 0.00172612, No Iterations 4
time step continuity errors : sum local = 5.00167e-05, global = 1.91036e-06, cumulative = -9.33924e-05
DILUPBiCG:  Solving for omega, Initial residual = 0.000270992, Final residual = 5.34264e-06, No Iterations 2
DILUPBiCG:  Solving for k, Initial residual = 0.000849886, Final residual = 2.51354e-06, No Iterations 3
bounding k, min: -0.00177301 max: 1.52537 average: 0.101389
ExecutionTime = 16 s  ClockTime = 16 s

Time = 63

DILUPBiCG:  Solving for Ux, Initial residual = 0.00145957, Final residual = 6.23018e-06, No Iterations 2
DILUPBiCG:  Solving for Uy, Initial residual = 0.0154769, Final residual = 7.94383e-05, No Iterations 2
DILUPBiCG:  Solving for Uz, Initial residual = 0.0668703, Final residual = 0.00015094, No Iterations 2
GAMG:  Solving for p, Initial residual = 0.0286165, Final residual = 0.00191203, No Iterations 4
time step continuity errors : sum local = 5.52601e-05, global = 4.96889e-07, cumulative = -9.28955e-05
DILUPBiCG:  Solving for omega, Initial residual = 0.000251982, Final residual = 5.43489e-06, No Iterations 2
DILUPBiCG:  Solving for k, Initial residual = 0.000841521, Final residual = 2.74027e-06, No Iterations 3
bounding k, min: -0.00180116 max: 1.52189 average: 0.101883
ExecutionTime = 16.23 s  ClockTime = 17 s

Time = 64

DILUPBiCG:  Solving for Ux, Initial residual = 0.00144, Final residual = 5.78523e-06, No Iterations 2
DILUPBiCG:  Solving for Uy, Initial residual = 0.0154372, Final residual = 9.1304e-05, No Iterations 2
DILUPBiCG:  Solving for Uz, Initial residual = 0.0650027, Final residual = 0.000140347, No Iterations 2
GAMG:  Solving for p, Initial residual = 0.0279797, Final residual = 0.00191355, No Iterations 4
time step continuity errors : sum local = 5.46421e-05, global = 4.89207e-07, cumulative = -9.24063e-05
DILUPBiCG:  Solving for omega, Initial residual = 0.000237151, Final residual = 2.4641e-06, No Iterations 3
DILUPBiCG:  Solving for k, Initial residual = 0.000826077, Final residual = 2.43232e-06, No Iterations 3
bounding k, min: -0.00180507 max: 1.51848 average: 0.10232
ExecutionTime = 16.46 s  ClockTime = 17 s

Time = 65

DILUPBiCG:  Solving for Ux, Initial residual = 0.00142045, Final residual = 5.33679e-06, No Iterations 2
DILUPBiCG:  Solving for Uy, Initial residual = 0.0153825, Final residual = 0.000103259, No Iterations 2
DILUPBiCG:  Solving for Uz, Initial residual = 0.0647142, Final residual = 0.000136383, No Iterations 2
GAMG:  Solving for p, Initial residual = 0.0272768, Final residual = 0.0018895, No Iterations 4
time step continuity errors : sum local = 5.32937e-05, global = 4.17431e-07, cumulative = -9.19889e-05
DILUPBiCG:  Solving for omega, Initial residual = 0.000221774, Final residual = 4.6849e-06, No Iterations 2
DILUPBiCG:  Solving for k, Initial residual = 0.000795458, Final residual = 2.51867e-06, No Iterations 3
bounding k, min: -0.00176537 max: 1.51518 average: 0.102744
ExecutionTime = 16.7 s  ClockTime = 17 s

Time = 66

DILUPBiCG:  Solving for Ux, Initial residual = 0.00140156, Final residual = 4.86262e-06, No Iterations 2
DILUPBiCG:  Solving for Uy, Initial residual = 0.0153381, Final residual = 0.000114308, No Iterations 2
DILUPBiCG:  Solving for Uz, Initial residual = 0.064516, Final residual = 0.000127244, No Iterations 2
GAMG:  Solving for p, Initial residual = 0.0273481, Final residual = 0.00183189, No Iterations 4
time step continuity errors : sum local = 5.10635e-05, global = 3.28925e-07, cumulative = -9.16599e-05
DILUPBiCG:  Solving for omega, Initial residual = 0.000206241, Final residual = 8.11846e-06, No Iterations 5
DILUPBiCG:  Solving for k, Initial residual = 0.00079336, Final residual = 2.16407e-06, No Iterations 3
bounding k, min: -0.00180152 max: 1.51192 average: 0.103172
ExecutionTime = 16.93 s  ClockTime = 17 s

Time = 67

DILUPBiCG:  Solving for Ux, Initial residual = 0.00138338, Final residual = 4.36828e-06, No Iterations 2
DILUPBiCG:  Solving for Uy, Initial residual = 0.0153, Final residual = 0.000123779, No Iterations 2
DILUPBiCG:  Solving for Uz, Initial residual = 0.0637887, Final residual = 0.000111845, No Iterations 2
GAMG:  Solving for p, Initial residual = 0.0268578, Final residual = 0.00177712, No Iterations 4
time step continuity errors : sum local = 4.89663e-05, global = 2.87855e-07, cumulative = -9.13721e-05
DILUPBiCG:  Solving for omega, Initial residual = 0.000198198, Final residual = 2.8476e-06, No Iterations 2
DILUPBiCG:  Solving for k, Initial residual = 0.000779381, Final residual = 1.98627e-06, No Iterations 3
bounding k, min: -0.00180507 max: 1.50875 average: 0.103545
ExecutionTime = 17.17 s  ClockTime = 18 s

Time = 68

DILUPBiCG:  Solving for Ux, Initial residual = 0.00136576, Final residual = 3.83434e-06, No Iterations 2
DILUPBiCG:  Solving for Uy, Initial residual = 0.0152509, Final residual = 0.000130479, No Iterations 2
DILUPBiCG:  Solving for Uz, Initial residual = 0.0628176, Final residual = 9.00902e-05, No Iterations 2
GAMG:  Solving for p, Initial residual = 0.0261298, Final residual = 0.00216396, No Iterations 4
time step continuity errors : sum local = 5.90787e-05, global = -5.10307e-07, cumulative = -9.18824e-05
DILUPBiCG:  Solving for omega, Initial residual = 0.000185467, Final residual = 2.45231e-06, No Iterations 2
DILUPBiCG:  Solving for k, Initial residual = 0.000751497, Final residual = 5.17698e-06, No Iterations 68
bounding k, min: -0.00178906 max: 1.50565 average: 0.103911
ExecutionTime = 17.53 s  ClockTime = 18 s

Time = 69

DILUPBiCG:  Solving for Ux, Initial residual = 0.0013487, Final residual = 3.27695e-06, No Iterations 2
DILUPBiCG:  Solving for Uy, Initial residual = 0.0152225, Final residual = 0.000128907, No Iterations 2
DILUPBiCG:  Solving for Uz, Initial residual = 0.0620195, Final residual = 9.3556e-05, No Iterations 2
GAMG:  Solving for p, Initial residual = 0.0262952, Final residual = 0.00160816, No Iterations 4
time step continuity errors : sum local = 4.35377e-05, global = 1.82664e-06, cumulative = -9.00557e-05
DILUPBiCG:  Solving for omega, Initial residual = 0.000172812, Final residual = 2.21194e-06, No Iterations 2
DILUPBiCG:  Solving for k, Initial residual = 0.000747335, Final residual = 2.92747e-06, No Iterations 3
bounding k, min: -0.00180679 max: 1.50263 average: 0.104282
ExecutionTime = 17.74 s  ClockTime = 18 s

Time = 70

DILUPBiCG:  Solving for Ux, Initial residual = 0.00133305, Final residual = 2.81342e-06, No Iterations 2
DILUPBiCG:  Solving for Uy, Initial residual = 0.0151833, Final residual = 0.000109328, No Iterations 2
DILUPBiCG:  Solving for Uz, Initial residual = 0.0615982, Final residual = 0.000119872, No Iterations 2
GAMG:  Solving for p, Initial residual = 0.0257501, Final residual = 0.00172652, No Iterations 4
time step continuity errors : sum local = 4.65795e-05, global = 3.21271e-07, cumulative = -8.97345e-05
DILUPBiCG:  Solving for omega, Initial residual = 0.000164285, Final residual = 1.93926e-06, No Iterations 2
DILUPBiCG:  Solving for k, Initial residual = 0.000735531, Final residual = 1.76778e-06, No Iterations 3
bounding k, min: -0.00180303 max: 1.4997 average: 0.104607
ExecutionTime = 17.98 s  ClockTime = 18 s

Time = 71

DILUPBiCG:  Solving for Ux, Initial residual = 0.00131675, Final residual = 2.49097e-06, No Iterations 2
DILUPBiCG:  Solving for Uy, Initial residual = 0.0151464, Final residual = 7.17433e-05, No Iterations 2
DILUPBiCG:  Solving for Uz, Initial residual = 0.0611246, Final residual = 0.000149143, No Iterations 2
GAMG:  Solving for p, Initial residual = 0.025257, Final residual = 0.00174064, No Iterations 4
time step continuity errors : sum local = 4.65498e-05, global = 3.70342e-07, cumulative = -8.93641e-05
DILUPBiCG:  Solving for omega, Initial residual = 0.000154372, Final residual = 2.22335e-06, No Iterations 2
DILUPBiCG:  Solving for k, Initial residual = 0.000708332, Final residual = 3.78022e-06, No Iterations 3
bounding k, min: -0.00173732 max: 1.49686 average: 0.104924
ExecutionTime = 18.2 s  ClockTime = 19 s

Time = 72

DILUPBiCG:  Solving for Ux, Initial residual = 0.00130091, Final residual = 2.27317e-06, No Iterations 2
DILUPBiCG:  Solving for Uy, Initial residual = 0.0151243, Final residual = 3.68796e-05, No Iterations 2
DILUPBiCG:  Solving for Uz, Initial residual = 0.0604031, Final residual = 0.000179629, No Iterations 2
GAMG:  Solving for p, Initial residual = 0.0256798, Final residual = 0.00172659, No Iterations 4
time step continuity errors : sum local = 4.57641e-05, global = 4.03133e-07, cumulative = -8.8961e-05
DILUPBiCG:  Solving for omega, Initial residual = 0.00014435, Final residual = 1.99373e-06, No Iterations 2
DILUPBiCG:  Solving for k, Initial residual = 0.000707167, Final residual = 1.36455e-06, No Iterations 3
bounding k, min: -0.00179928 max: 1.49408 average: 0.105254
ExecutionTime = 18.43 s  ClockTime = 19 s

Time = 73

DILUPBiCG:  Solving for Ux, Initial residual = 0.00128552, Final residual = 2.15608e-06, No Iterations 2
DILUPBiCG:  Solving for Uy, Initial residual = 0.0150902, Final residual = 1.90906e-05, No Iterations 2
DILUPBiCG:  Solving for Uz, Initial residual = 0.0595778, Final residual = 0.000208902, No Iterations 2
GAMG:  Solving for p, Initial residual = 0.0258296, Final residual = 0.00173623, No Iterations 4
time step continuity errors : sum local = 4.55538e-05, global = 4.15154e-07, cumulative = -8.85458e-05
DILUPBiCG:  Solving for omega, Initial residual = 0.000138829, Final residual = 1.69234e-06, No Iterations 2
DILUPBiCG:  Solving for k, Initial residual = 0.000695735, Final residual = 1.58356e-06, No Iterations 3
bounding k, min: -0.00180135 max: 1.4914 average: 0.105537
ExecutionTime = 18.65 s  ClockTime = 19 s

Time = 74

DILUPBiCG:  Solving for Ux, Initial residual = 0.00127037, Final residual = 2.30127e-06, No Iterations 2
DILUPBiCG:  Solving for Uy, Initial residual = 0.0150676, Final residual = 1.59612e-05, No Iterations 2
DILUPBiCG:  Solving for Uz, Initial residual = 0.0588116, Final residual = 0.000230195, No Iterations 2
GAMG:  Solving for p, Initial residual = 0.0252858, Final residual = 0.00173661, No Iterations 4
time step continuity errors : sum local = 4.51551e-05, global = 4.09428e-07, cumulative = -8.81364e-05
DILUPBiCG:  Solving for omega, Initial residual = 0.000131473, Final residual = 1.94259e-06, No Iterations 2
DILUPBiCG:  Solving for k, Initial residual = 0.000671178, Final residual = 1.1763e-06, No Iterations 5
bounding k, min: -0.00180964 max: 1.48882 average: 0.105815
ExecutionTime = 18.87 s  ClockTime = 19 s

Time = 75

DILUPBiCG:  Solving for Ux, Initial residual = 0.00125576, Final residual = 2.67344e-06, No Iterations 2
DILUPBiCG:  Solving for Uy, Initial residual = 0.0150449, Final residual = 1.6466e-05, No Iterations 2
DILUPBiCG:  Solving for Uz, Initial residual = 0.0580938, Final residual = 0.000235243, No Iterations 2
GAMG:  Solving for p, Initial residual = 0.0255506, Final residual = 0.00173246, No Iterations 4
time step continuity errors : sum local = 4.46696e-05, global = 3.85337e-07, cumulative = -8.77511e-05
DILUPBiCG:  Solving for omega, Initial residual = 0.000124286, Final residual = 1.77218e-06, No Iterations 2
DILUPBiCG:  Solving for k, Initial residual = 0.000670077, Final residual = 1.18408e-06, No Iterations 3
bounding k, min: -0.00180556 max: 1.48628 average: 0.106108
ExecutionTime = 19.09 s  ClockTime = 19 s

Time = 76

DILUPBiCG:  Solving for Ux, Initial residual = 0.00124148, Final residual = 3.07085e-06, No Iterations 2
DILUPBiCG:  Solving for Uy, Initial residual = 0.0150174, Final residual = 1.76137e-05, No Iterations 2
DILUPBiCG:  Solving for Uz, Initial residual = 0.0574606, Final residual = 0.000216189, No Iterations 2
GAMG:  Solving for p, Initial residual = 0.0249959, Final residual = 0.00173206, No Iterations 4
time step continuity errors : sum local = 4.42745e-05, global = 3.7857e-07, cumulative = -8.73725e-05
DILUPBiCG:  Solving for omega, Initial residual = 0.000121156, Final residual = 1.52921e-06, No Iterations 2
DILUPBiCG:  Solving for k, Initial residual = 0.000661429, Final residual = 1.47182e-06, No Iterations 3
bounding k, min: -0.00180241 max: 1.48381 average: 0.106357
ExecutionTime = 19.29 s  ClockTime = 20 s

Time = 77

DILUPBiCG:  Solving for Ux, Initial residual = 0.00122753, Final residual = 3.37438e-06, No Iterations 2
DILUPBiCG:  Solving for Uy, Initial residual = 0.0150022, Final residual = 1.8875e-05, No Iterations 2
DILUPBiCG:  Solving for Uz, Initial residual = 0.056866, Final residual = 0.000183431, No Iterations 2
GAMG:  Solving for p, Initial residual = 0.0242851, Final residual = 0.0017291, No Iterations 4
time step continuity errors : sum local = 4.38517e-05, global = 3.77891e-07, cumulative = -8.69946e-05
DILUPBiCG:  Solving for omega, Initial residual = 0.000115768, Final residual = 1.74631e-06, No Iterations 2
DILUPBiCG:  Solving for k, Initial residual = 0.000637396, Final residual = 5.43049e-06, No Iterations 3
bounding k, min: -0.00170147 max: 1.48143 average: 0.106602
ExecutionTime = 19.51 s  ClockTime = 20 s

Time = 78

DILUPBiCG:  Solving for Ux, Initial residual = 0.00121388, Final residual = 3.49275e-06, No Iterations 2
DILUPBiCG:  Solving for Uy, Initial residual = 0.0149793, Final residual = 2.00808e-05, No Iterations 2
DILUPBiCG:  Solving for Uz, Initial residual = 0.0562936, Final residual = 0.000149513, No Iterations 2
GAMG:  Solving for p, Initial residual = 0.0241477, Final residual = 0.00172377, No Iterations 4
time step continuity errors : sum local = 4.34041e-05, global = 3.88192e-07, cumulative = -8.66064e-05
DILUPBiCG:  Solving for omega, Initial residual = 0.00011027, Final residual = 1.60149e-06, No Iterations 2
DILUPBiCG:  Solving for k, Initial residual = 0.000639146, Final residual = 1.01355e-06, No Iterations 3
bounding k, min: -0.00179354 max: 1.47908 average: 0.106863
ExecutionTime = 19.73 s  ClockTime = 20 s

Time = 79

DILUPBiCG:  Solving for Ux, Initial residual = 0.00120057, Final residual = 3.38385e-06, No Iterations 2
DILUPBiCG:  Solving for Uy, Initial residual = 0.014958, Final residual = 2.19295e-05, No Iterations 2
DILUPBiCG:  Solving for Uz, Initial residual = 0.0556881, Final residual = 0.000132803, No Iterations 2
GAMG:  Solving for p, Initial residual = 0.0237927, Final residual = 0.00172324, No Iterations 4
time step continuity errors : sum local = 4.30306e-05, global = 4.06575e-07, cumulative = -8.61999e-05
DILUPBiCG:  Solving for omega, Initial residual = 0.000108672, Final residual = 1.40208e-06, No Iterations 2
DILUPBiCG:  Solving for k, Initial residual = 0.000630408, Final residual = 1.36576e-06, No Iterations 3
bounding k, min: -0.00180149 max: 1.47679 average: 0.10708
ExecutionTime = 19.97 s  ClockTime = 20 s

Time = 80

DILUPBiCG:  Solving for Ux, Initial residual = 0.00118737, Final residual = 3.13595e-06, No Iterations 2
DILUPBiCG:  Solving for Uy, Initial residual = 0.0149469, Final residual = 2.27136e-05, No Iterations 2
DILUPBiCG:  Solving for Uz, Initial residual = 0.0550594, Final residual = 0.000132988, No Iterations 2
GAMG:  Solving for p, Initial residual = 0.0229549, Final residual = 0.00170453, No Iterations 4
time step continuity errors : sum local = 4.22404e-05, global = 4.17027e-07, cumulative = -8.57828e-05
DILUPBiCG:  Solving for omega, Initial residual = 0.000104728, Final residual = 1.58302e-06, No Iterations 2
DILUPBiCG:  Solving for k, Initial residual = 0.000608697, Final residual = 4.42016e-06, No Iterations 3
bounding k, min: -0.00171423 max: 1.47456 average: 0.107295
ExecutionTime = 20.2 s  ClockTime = 21 s

Time = 81

DILUPBiCG:  Solving for Ux, Initial residual = 0.0011746, Final residual = 2.84005e-06, No Iterations 2
DILUPBiCG:  Solving for Uy, Initial residual = 0.0149314, Final residual = 2.24009e-05, No Iterations 2
DILUPBiCG:  Solving for Uz, Initial residual = 0.0544818, Final residual = 0.000136811, No Iterations 2
GAMG:  Solving for p, Initial residual = 0.0232372, Final residual = 0.00171041, No Iterations 4
time step continuity errors : sum local = 4.20639e-05, global = 4.31817e-07, cumulative = -8.5351e-05
DILUPBiCG:  Solving for omega, Initial residual = 0.000100443, Final residual = 1.46111e-06, No Iterations 2
DILUPBiCG:  Solving for k, Initial residual = 0.000610527, Final residual = 8.86092e-07, No Iterations 3
bounding k, min: -0.00179591 max: 1.47235 average: 0.107527
ExecutionTime = 20.45 s  ClockTime = 21 s

Time = 82

DILUPBiCG:  Solving for Ux, Initial residual = 0.00116205, Final residual = 2.47407e-06, No Iterations 2
DILUPBiCG:  Solving for Uy, Initial residual = 0.0149216, Final residual = 2.12899e-05, No Iterations 2
DILUPBiCG:  Solving for Uz, Initial residual = 0.0540241, Final residual = 0.000141536, No Iterations 2
GAMG:  Solving for p, Initial residual = 0.0229741, Final residual = 0.00170415, No Iterations 4
time step continuity errors : sum local = 4.1549e-05, global = 4.2873e-07, cumulative = -8.49223e-05
DILUPBiCG:  Solving for omega, Initial residual = 9.99343e-05, Final residual = 1.29574e-06, No Iterations 2
DILUPBiCG:  Solving for k, Initial residual = 0.000604046, Final residual = 1.25736e-06, No Iterations 3
bounding k, min: -0.00180287 max: 1.4702 average: 0.107718
ExecutionTime = 20.69 s  ClockTime = 21 s

Time = 83

DILUPBiCG:  Solving for Ux, Initial residual = 0.00114965, Final residual = 2.09362e-06, No Iterations 2
DILUPBiCG:  Solving for Uy, Initial residual = 0.014913, Final residual = 1.97943e-05, No Iterations 2
DILUPBiCG:  Solving for Uz, Initial residual = 0.0537409, Final residual = 0.000142729, No Iterations 2
GAMG:  Solving for p, Initial residual = 0.0226602, Final residual = 0.00170839, No Iterations 4
time step continuity errors : sum local = 4.13208e-05, global = 4.33483e-07, cumulative = -8.44888e-05
DILUPBiCG:  Solving for omega, Initial residual = 9.68882e-05, Final residual = 1.42106e-06, No Iterations 2
DILUPBiCG:  Solving for k, Initial residual = 0.000582186, Final residual = 3.12274e-06, No Iterations 3
bounding k, min: -0.00173508 max: 1.46809 average: 0.107907
ExecutionTime = 20.9 s  ClockTime = 21 s

Time = 84

DILUPBiCG:  Solving for Ux, Initial residual = 0.00113755, Final residual = 1.9885e-06, No Iterations 2
DILUPBiCG:  Solving for Uy, Initial residual = 0.0149011, Final residual = 1.81761e-05, No Iterations 2
DILUPBiCG:  Solving for Uz, Initial residual = 0.0535682, Final residual = 0.000136132, No Iterations 2
GAMG:  Solving for p, Initial residual = 0.0232043, Final residual = 0.00171286, No Iterations 4
time step continuity errors : sum local = 4.11166e-05, global = 4.35959e-07, cumulative = -8.40528e-05
DILUPBiCG:  Solving for omega, Initial residual = 9.33539e-05, Final residual = 1.31328e-06, No Iterations 2
DILUPBiCG:  Solving for k, Initial residual = 0.000585722, Final residual = 9.83514e-06, No Iterations 2
bounding k, min: -0.00180019 max: 1.46599 average: 0.108117
ExecutionTime = 21.09 s  ClockTime = 22 s

Time = 85

DILUPBiCG:  Solving for Ux, Initial residual = 0.00112574, Final residual = 1.94758e-06, No Iterations 2
DILUPBiCG:  Solving for Uy, Initial residual = 0.0148992, Final residual = 1.66148e-05, No Iterations 2
DILUPBiCG:  Solving for Uz, Initial residual = 0.0533714, Final residual = 0.00011956, No Iterations 2
GAMG:  Solving for p, Initial residual = 0.023013, Final residual = 0.00171542, No Iterations 4
time step continuity errors : sum local = 4.08293e-05, global = 4.40789e-07, cumulative = -8.3612e-05
DILUPBiCG:  Solving for omega, Initial residual = 9.36401e-05, Final residual = 1.18131e-06, No Iterations 2
DILUPBiCG:  Solving for k, Initial residual = 0.000578477, Final residual = 9.48518e-06, No Iterations 2
bounding k, min: -0.00186093 max: 1.46393 average: 0.108285
ExecutionTime = 21.31 s  ClockTime = 22 s

Time = 86

DILUPBiCG:  Solving for Ux, Initial residual = 0.00111405, Final residual = 1.9441e-06, No Iterations 2
DILUPBiCG:  Solving for Uy, Initial residual = 0.014892, Final residual = 1.54068e-05, No Iterations 2
DILUPBiCG:  Solving for Uz, Initial residual = 0.0530565, Final residual = 0.000113397, No Iterations 2
GAMG:  Solving for p, Initial residual = 0.0224295, Final residual = 0.00171497, No Iterations 4
time step continuity errors : sum local = 4.05084e-05, global = 4.3316e-07, cumulative = -8.31789e-05
DILUPBiCG:  Solving for omega, Initial residual = 9.1231e-05, Final residual = 1.25806e-06, No Iterations 2
DILUPBiCG:  Solving for k, Initial residual = 0.000557924, Final residual = 8.97624e-06, No Iterations 2
bounding k, min: -0.00186074 max: 1.46191 average: 0.108454
ExecutionTime = 21.52 s  ClockTime = 22 s

Time = 87

DILUPBiCG:  Solving for Ux, Initial residual = 0.00110269, Final residual = 1.94466e-06, No Iterations 2
DILUPBiCG:  Solving for Uy, Initial residual = 0.014883, Final residual = 1.4493e-05, No Iterations 2
DILUPBiCG:  Solving for Uz, Initial residual = 0.0525775, Final residual = 0.000128678, No Iterations 2
GAMG:  Solving for p, Initial residual = 0.0227958, Final residual = 0.00172276, No Iterations 4
time step continuity errors : sum local = 4.03943e-05, global = 4.23295e-07, cumulative = -8.27556e-05
DILUPBiCG:  Solving for omega, Initial residual = 8.83146e-05, Final residual = 1.16998e-06, No Iterations 2
DILUPBiCG:  Solving for k, Initial residual = 0.000560047, Final residual = 8.11046e-06, No Iterations 2
bounding k, min: -0.00180457 max: 1.45993 average: 0.108642
ExecutionTime = 21.73 s  ClockTime = 22 s

Time = 88

DILUPBiCG:  Solving for Ux, Initial residual = 0.00109153, Final residual = 1.93809e-06, No Iterations 2
DILUPBiCG:  Solving for Uy, Initial residual = 0.0148847, Final residual = 1.37067e-05, No Iterations 2
DILUPBiCG:  Solving for Uz, Initial residual = 0.0519165, Final residual = 0.000172339, No Iterations 2
GAMG:  Solving for p, Initial residual = 0.0225424, Final residual = 0.0017313, No Iterations 4
time step continuity errors : sum local = 4.02568e-05, global = 4.27593e-07, cumulative = -8.2328e-05
DILUPBiCG:  Solving for omega, Initial residual = 8.88339e-05, Final residual = 1.07886e-06, No Iterations 2
DILUPBiCG:  Solving for k, Initial residual = 0.000555275, Final residual = 7.44621e-06, No Iterations 2
bounding k, min: -0.00183403 max: 1.45798 average: 0.108789
ExecutionTime = 21.95 s  ClockTime = 22 s

Time = 89

DILUPBiCG:  Solving for Ux, Initial residual = 0.00108055, Final residual = 1.93311e-06, No Iterations 2
DILUPBiCG:  Solving for Uy, Initial residual = 0.0148777, Final residual = 1.31268e-05, No Iterations 2
DILUPBiCG:  Solving for Uz, Initial residual = 0.0510967, Final residual = 0.00022601, No Iterations 2
GAMG:  Solving for p, Initial residual = 0.0218494, Final residual = 0.00173093, No Iterations 4
time step continuity errors : sum local = 3.99398e-05, global = 4.33662e-07, cumulative = -8.18943e-05
DILUPBiCG:  Solving for omega, Initial residual = 8.66931e-05, Final residual = 1.11003e-06, No Iterations 2
DILUPBiCG:  Solving for k, Initial residual = 0.000534739, Final residual = 7.18898e-06, No Iterations 2
bounding k, min: -0.00181183 max: 1.45606 average: 0.108937
ExecutionTime = 22.19 s  ClockTime = 23 s

Time = 90

DILUPBiCG:  Solving for Ux, Initial residual = 0.00106983, Final residual = 1.91545e-06, No Iterations 2
DILUPBiCG:  Solving for Uy, Initial residual = 0.0148741, Final residual = 1.27386e-05, No Iterations 2
DILUPBiCG:  Solving for Uz, Initial residual = 0.0502707, Final residual = 0.000281912, No Iterations 2
GAMG:  Solving for p, Initial residual = 0.0222682, Final residual = 0.00173392, No Iterations 4
time step continuity errors : sum local = 3.97127e-05, global = 4.36405e-07, cumulative = -8.14579e-05
DILUPBiCG:  Solving for omega, Initial residual = 8.40888e-05, Final residual = 9.72511e-06, No Iterations 1
DILUPBiCG:  Solving for k, Initial residual = 0.000540346, Final residual = 6.88059e-06, No Iterations 2
bounding k, min: -0.00179999 max: 1.45418 average: 0.109104
ExecutionTime = 22.41 s  ClockTime = 23 s

Time = 91

DILUPBiCG:  Solving for Ux, Initial residual = 0.00105936, Final residual = 1.88986e-06, No Iterations 2
DILUPBiCG:  Solving for Uy, Initial residual = 0.0148724, Final residual = 1.24745e-05, No Iterations 2
DILUPBiCG:  Solving for Uz, Initial residual = 0.0495144, Final residual = 0.000331554, No Iterations 2
GAMG:  Solving for p, Initial residual = 0.0220234, Final residual = 0.00173506, No Iterations 4
time step continuity errors : sum local = 3.93917e-05, global = 4.3581e-07, cumulative = -8.10221e-05
DILUPBiCG:  Solving for omega, Initial residual = 8.73569e-05, Final residual = 1.07952e-06, No Iterations 2
DILUPBiCG:  Solving for k, Initial residual = 0.000535181, Final residual = 6.39448e-06, No Iterations 2
bounding k, min: -0.00181924 max: 1.4523 average: 0.109229
ExecutionTime = 22.63 s  ClockTime = 23 s

Time = 92

DILUPBiCG:  Solving for Ux, Initial residual = 0.00104899, Final residual = 1.87462e-06, No Iterations 2
DILUPBiCG:  Solving for Uy, Initial residual = 0.0148651, Final residual = 1.22248e-05, No Iterations 2
DILUPBiCG:  Solving for Uz, Initial residual = 0.0488848, Final residual = 0.000369606, No Iterations 2
GAMG:  Solving for p, Initial residual = 0.0213584, Final residual = 0.00173068, No Iterations 4
time step continuity errors : sum local = 3.89814e-05, global = 4.41955e-07, cumulative = -8.05802e-05
DILUPBiCG:  Solving for omega, Initial residual = 8.42985e-05, Final residual = 9.8051e-06, No Iterations 1
DILUPBiCG:  Solving for k, Initial residual = 0.000517648, Final residual = 6.23065e-06, No Iterations 2
bounding k, min: -0.00177228 max: 1.45043 average: 0.109356
ExecutionTime = 22.86 s  ClockTime = 23 s

Time = 93

DILUPBiCG:  Solving for Ux, Initial residual = 0.00103888, Final residual = 1.85837e-06, No Iterations 2
DILUPBiCG:  Solving for Uy, Initial residual = 0.0148668, Final residual = 1.19906e-05, No Iterations 2
DILUPBiCG:  Solving for Uz, Initial residual = 0.0484151, Final residual = 0.000397406, No Iterations 2
GAMG:  Solving for p, Initial residual = 0.0217974, Final residual = 0.00172751, No Iterations 4
time step continuity errors : sum local = 3.86063e-05, global = 4.47399e-07, cumulative = -8.01328e-05
DILUPBiCG:  Solving for omega, Initial residual = 8.42616e-05, Final residual = 9.75251e-06, No Iterations 1
DILUPBiCG:  Solving for k, Initial residual = 0.000521821, Final residual = 5.98642e-06, No Iterations 2
bounding k, min: -0.00179485 max: 1.4486 average: 0.109501
ExecutionTime = 23.08 s  ClockTime = 23 s

Time = 94

[...]
time step continuity errors : sum local = 1.66922e-05, global = -1.07603e-06, cumulative = -0.000104826
DILUPBiCG:  Solving for omega, Initial residual = 9.87995e-06, Final residual = 9.87995e-06, No Iterations 0
DILUPBiCG:  Solving for k, Initial residual = 3.11922e-05, Final residual = 1.97016e-06, No Iterations 1
bounding k, min: -0.00156097 max: 0.842126 average: 0.153627
ExecutionTime = 210.89 s  ClockTime = 214 s

Time = 978

DILUPBiCG:  Solving for Ux, Initial residual = 4.87842e-06, Final residual = 4.87842e-06, No Iterations 0
DILUPBiCG:  Solving for Uy, Initial residual = 0.000259218, Final residual = 8.59507e-06, No Iterations 1
DILUPBiCG:  Solving for Uz, Initial residual = 0.148953, Final residual = 5.38104e-05, No Iterations 3
GAMG:  Solving for p, Initial residual = 0.00699084, Final residual = 0.000546405, No Iterations 2
time step continuity errors : sum local = 1.98488e-05, global = -2.79486e-07, cumulative = -0.000105105
DILUPBiCG:  Solving for omega, Initial residual = 7.37137e-06, Final residual = 7.37137e-06, No Iterations 0
DILUPBiCG:  Solving for k, Initial residual = 1.91282e-05, Final residual = 1.74735e-06, No Iterations 1
bounding k, min: -0.00124919 max: 0.842163 average: 0.153619
ExecutionTime = 211.06 s  ClockTime = 214 s

Time = 979

DILUPBiCG:  Solving for Ux, Initial residual = 4.89906e-06, Final residual = 4.89906e-06, No Iterations 0
DILUPBiCG:  Solving for Uy, Initial residual = 0.000261125, Final residual = 8.43458e-06, No Iterations 1
DILUPBiCG:  Solving for Uz, Initial residual = 0.149556, Final residual = 4.28586e-05, No Iterations 3
GAMG:  Solving for p, Initial residual = 0.00744847, Final residual = 0.00051087, No Iterations 2
time step continuity errors : sum local = 1.85721e-05, global = -8.10345e-07, cumulative = -0.000105915
DILUPBiCG:  Solving for omega, Initial residual = 5.42284e-06, Final residual = 5.42284e-06, No Iterations 0
DILUPBiCG:  Solving for k, Initial residual = 2.94557e-05, Final residual = 1.37044e-06, No Iterations 1
bounding k, min: -0.00107883 max: 0.842199 average: 0.153644
ExecutionTime = 211.25 s  ClockTime = 214 s

Time = 980

DILUPBiCG:  Solving for Ux, Initial residual = 4.94446e-06, Final residual = 4.94446e-06, No Iterations 0
DILUPBiCG:  Solving for Uy, Initial residual = 0.000262792, Final residual = 9.90103e-06, No Iterations 1
DILUPBiCG:  Solving for Uz, Initial residual = 0.149641, Final residual = 3.91138e-05, No Iterations 3
GAMG:  Solving for p, Initial residual = 0.0074976, Final residual = 0.00048861, No Iterations 2
time step continuity errors : sum local = 1.77587e-05, global = -1.18468e-06, cumulative = -0.0001071
DILUPBiCG:  Solving for omega, Initial residual = 9.92195e-06, Final residual = 9.92195e-06, No Iterations 0
DILUPBiCG:  Solving for k, Initial residual = 3.10004e-05, Final residual = 1.94894e-06, No Iterations 1
bounding k, min: -0.00156137 max: 0.842234 average: 0.153628
ExecutionTime = 211.42 s  ClockTime = 214 s

Time = 981

DILUPBiCG:  Solving for Ux, Initial residual = 4.92723e-06, Final residual = 4.92723e-06, No Iterations 0
DILUPBiCG:  Solving for Uy, Initial residual = 0.000260441, Final residual = 8.55122e-06, No Iterations 1
DILUPBiCG:  Solving for Uz, Initial residual = 0.14988, Final residual = 4.25741e-05, No Iterations 3
GAMG:  Solving for p, Initial residual = 0.0073083, Final residual = 0.000633252, No Iterations 2
time step continuity errors : sum local = 2.30198e-05, global = 9.02e-08, cumulative = -0.00010701
DILUPBiCG:  Solving for omega, Initial residual = 7.56222e-06, Final residual = 7.56222e-06, No Iterations 0
DILUPBiCG:  Solving for k, Initial residual = 1.96122e-05, Final residual = 1.78603e-06, No Iterations 1
bounding k, min: -0.0012329 max: 0.842271 average: 0.153621
ExecutionTime = 211.57 s  ClockTime = 214 s

Time = 982

DILUPBiCG:  Solving for Ux, Initial residual = 4.9992e-06, Final residual = 4.9992e-06, No Iterations 0
DILUPBiCG:  Solving for Uy, Initial residual = 0.000264137, Final residual = 8.37935e-06, No Iterations 1
DILUPBiCG:  Solving for Uz, Initial residual = 0.150415, Final residual = 5.30162e-05, No Iterations 3
GAMG:  Solving for p, Initial residual = 0.00776606, Final residual = 0.000503611, No Iterations 2
time step continuity errors : sum local = 1.83398e-05, global = -1.05735e-06, cumulative = -0.000108067
DILUPBiCG:  Solving for omega, Initial residual = 5.45207e-06, Final residual = 5.45207e-06, No Iterations 0
DILUPBiCG:  Solving for k, Initial residual = 2.89927e-05, Final residual = 1.40709e-06, No Iterations 1
bounding k, min: -0.00109049 max: 0.842306 average: 0.153645
ExecutionTime = 211.73 s  ClockTime = 214 s

Time = 983

DILUPBiCG:  Solving for Ux, Initial residual = 5.04539e-06, Final residual = 5.04539e-06, No Iterations 0
DILUPBiCG:  Solving for Uy, Initial residual = 0.000263249, Final residual = 9.67206e-06, No Iterations 1
DILUPBiCG:  Solving for Uz, Initial residual = 0.1507, Final residual = 0.0014358, No Iterations 2
GAMG:  Solving for p, Initial residual = 0.00781124, Final residual = 0.0005406, No Iterations 2
time step continuity errors : sum local = 1.96812e-05, global = -8.19635e-07, cumulative = -0.000108887
DILUPBiCG:  Solving for omega, Initial residual = 1.01253e-05, Final residual = 5.77224e-07, No Iterations 1
DILUPBiCG:  Solving for k, Initial residual = 3.06637e-05, Final residual = 1.82735e-06, No Iterations 1
bounding k, min: -0.00159365 max: 0.842329 average: 0.153629
ExecutionTime = 211.9 s  ClockTime = 215 s

Time = 984

DILUPBiCG:  Solving for Ux, Initial residual = 5.04517e-06, Final residual = 5.04517e-06, No Iterations 0
DILUPBiCG:  Solving for Uy, Initial residual = 0.000264709, Final residual = 8.8118e-06, No Iterations 1
DILUPBiCG:  Solving for Uz, Initial residual = 0.151002, Final residual = 7.42292e-05, No Iterations 3
GAMG:  Solving for p, Initial residual = 0.00760211, Final residual = 0.000497481, No Iterations 2
time step continuity errors : sum local = 1.81151e-05, global = -1.16839e-06, cumulative = -0.000110055
DILUPBiCG:  Solving for omega, Initial residual = 7.31891e-06, Final residual = 7.31891e-06, No Iterations 0
DILUPBiCG:  Solving for k, Initial residual = 1.85308e-05, Final residual = 1.59317e-06, No Iterations 1
bounding k, min: -0.00123492 max: 0.842347 average: 0.153622
ExecutionTime = 212.07 s  ClockTime = 215 s

Time = 985

DILUPBiCG:  Solving for Ux, Initial residual = 5.06703e-06, Final residual = 5.06703e-06, No Iterations 0
DILUPBiCG:  Solving for Uy, Initial residual = 0.000263494, Final residual = 8.56538e-06, No Iterations 1
DILUPBiCG:  Solving for Uz, Initial residual = 0.151606, Final residual = 7.16848e-05, No Iterations 3
GAMG:  Solving for p, Initial residual = 0.00807805, Final residual = 0.000574458, No Iterations 2
time step continuity errors : sum local = 2.09274e-05, global = -3.99262e-07, cumulative = -0.000110455
DILUPBiCG:  Solving for omega, Initial residual = 9.39659e-06, Final residual = 9.39659e-06, No Iterations 0
DILUPBiCG:  Solving for k, Initial residual = 2.88713e-05, Final residual = 1.31588e-06, No Iterations 1
bounding k, min: -0.00108629 max: 0.842368 average: 0.153647
ExecutionTime = 212.28 s  ClockTime = 215 s

Time = 986

DILUPBiCG:  Solving for Ux, Initial residual = 5.12079e-06, Final residual = 5.12079e-06, No Iterations 0
DILUPBiCG:  Solving for Uy, Initial residual = 0.000267275, Final residual = 1.12232e-06, No Iterations 2
DILUPBiCG:  Solving for Uz, Initial residual = 0.152696, Final residual = 6.87968e-05, No Iterations 3
GAMG:  Solving for p, Initial residual = 0.00814147, Final residual = 0.000508073, No Iterations 2
time step continuity errors : sum local = 1.85065e-05, global = -1.18125e-06, cumulative = -0.000111636
DILUPBiCG:  Solving for omega, Initial residual = 5.02318e-06, Final residual = 5.02318e-06, No Iterations 0
DILUPBiCG:  Solving for k, Initial residual = 3.05476e-05, Final residual = 1.84579e-06, No Iterations 1
bounding k, min: -0.00166477 max: 0.842391 average: 0.15363
ExecutionTime = 212.44 s  ClockTime = 215 s

Time = 987

DILUPBiCG:  Solving for Ux, Initial residual = 5.128e-06, Final residual = 5.128e-06, No Iterations 0
DILUPBiCG:  Solving for Uy, Initial residual = 0.000265171, Final residual = 8.65535e-06, No Iterations 1
DILUPBiCG:  Solving for Uz, Initial residual = 0.152909, Final residual = 5.34037e-05, No Iterations 3
GAMG:  Solving for p, Initial residual = 0.00798039, Final residual = 0.000586348, No Iterations 2
time step continuity errors : sum local = 2.13613e-05, global = -3.73679e-07, cumulative = -0.00011201
DILUPBiCG:  Solving for omega, Initial residual = 7.6427e-06, Final residual = 7.6427e-06, No Iterations 0
DILUPBiCG:  Solving for k, Initial residual = 1.94768e-05, Final residual = 1.66771e-06, No Iterations 1
bounding k, min: -0.00122748 max: 0.842416 average: 0.153623
ExecutionTime = 212.59 s  ClockTime = 215 s

Time = 988

DILUPBiCG:  Solving for Ux, Initial residual = 5.16096e-06, Final residual = 5.16096e-06, No Iterations 0
DILUPBiCG:  Solving for Uy, Initial residual = 0.000269297, Final residual = 8.27745e-06, No Iterations 1
DILUPBiCG:  Solving for Uz, Initial residual = 0.153328, Final residual = 4.18006e-05, No Iterations 3
GAMG:  Solving for p, Initial residual = 0.00846004, Final residual = 0.000545532, No Iterations 2
time step continuity errors : sum local = 1.98863e-05, global = -1.19009e-06, cumulative = -0.0001132
DILUPBiCG:  Solving for omega, Initial residual = 9.7494e-06, Final residual = 9.7494e-06, No Iterations 0
DILUPBiCG:  Solving for k, Initial residual = 2.87221e-05, Final residual = 1.31716e-06, No Iterations 1
bounding k, min: -0.0010938 max: 0.842443 average: 0.153648
ExecutionTime = 212.75 s  ClockTime = 215 s

Time = 989

DILUPBiCG:  Solving for Ux, Initial residual = 5.20964e-06, Final residual = 5.20964e-06, No Iterations 0
DILUPBiCG:  Solving for Uy, Initial residual = 0.000269288, Final residual = 9.06017e-06, No Iterations 1
DILUPBiCG:  Solving for Uz, Initial residual = 0.153424, Final residual = 4.03519e-05, No Iterations 3
GAMG:  Solving for p, Initial residual = 0.00857241, Final residual = 0.000586628, No Iterations 2
time step continuity errors : sum local = 2.13786e-05, global = -9.83045e-07, cumulative = -0.000114183
DILUPBiCG:  Solving for omega, Initial residual = 5.16271e-06, Final residual = 5.16271e-06, No Iterations 0
DILUPBiCG:  Solving for k, Initial residual = 3.0632e-05, Final residual = 1.80074e-06, No Iterations 1
bounding k, min: -0.00169031 max: 0.84247 average: 0.153631
ExecutionTime = 212.92 s  ClockTime = 216 s

Time = 990

DILUPBiCG:  Solving for Ux, Initial residual = 5.23297e-06, Final residual = 5.23297e-06, No Iterations 0
DILUPBiCG:  Solving for Uy, Initial residual = 0.000270175, Final residual = 8.08368e-06, No Iterations 1
DILUPBiCG:  Solving for Uz, Initial residual = 0.153507, Final residual = 4.49606e-05, No Iterations 3
GAMG:  Solving for p, Initial residual = 0.00842785, Final residual = 0.000568923, No Iterations 2
time step continuity errors : sum local = 2.07377e-05, global = -1.43469e-06, cumulative = -0.000115617
DILUPBiCG:  Solving for omega, Initial residual = 7.9379e-06, Final residual = 7.9379e-06, No Iterations 0
DILUPBiCG:  Solving for k, Initial residual = 1.89982e-05, Final residual = 1.63616e-06, No Iterations 1
bounding k, min: -0.00122836 max: 0.8425 average: 0.153623
ExecutionTime = 213.1 s  ClockTime = 216 s

Time = 991

DILUPBiCG:  Solving for Ux, Initial residual = 5.25312e-06, Final residual = 5.25312e-06, No Iterations 0
DILUPBiCG:  Solving for Uy, Initial residual = 0.000270038, Final residual = 7.94343e-06, No Iterations 1
DILUPBiCG:  Solving for Uz, Initial residual = 0.153887, Final residual = 5.40018e-05, No Iterations 3
GAMG:  Solving for p, Initial residual = 0.00890331, Final residual = 0.00069169, No Iterations 2
time step continuity errors : sum local = 2.52247e-05, global = -4.34791e-07, cumulative = -0.000116052
DILUPBiCG:  Solving for omega, Initial residual = 9.89032e-06, Final residual = 9.89032e-06, No Iterations 0
DILUPBiCG:  Solving for k, Initial residual = 2.90482e-05, Final residual = 1.36399e-06, No Iterations 1
bounding k, min: -0.0010818 max: 0.842529 average: 0.153648
ExecutionTime = 213.26 s  ClockTime = 216 s

Time = 992

DILUPBiCG:  Solving for Ux, Initial residual = 5.33383e-06, Final residual = 5.33383e-06, No Iterations 0
DILUPBiCG:  Solving for Uy, Initial residual = 0.000274143, Final residual = 9.0199e-06, No Iterations 1
DILUPBiCG:  Solving for Uz, Initial residual = 0.154235, Final residual = 5.53753e-05, No Iterations 3
GAMG:  Solving for p, Initial residual = 0.00899404, Final residual = 0.000602898, No Iterations 2
time step continuity errors : sum local = 2.19888e-05, global = -1.50854e-06, cumulative = -0.000117561
DILUPBiCG:  Solving for omega, Initial residual = 5.49941e-06, Final residual = 5.49941e-06, No Iterations 0
DILUPBiCG:  Solving for k, Initial residual = 3.0837e-05, Final residual = 1.88261e-06, No Iterations 1
bounding k, min: -0.00169265 max: 0.842559 average: 0.153632
ExecutionTime = 213.42 s  ClockTime = 216 s

Time = 993

DILUPBiCG:  Solving for Ux, Initial residual = 5.35052e-06, Final residual = 5.35052e-06, No Iterations 0
DILUPBiCG:  Solving for Uy, Initial residual = 0.000272758, Final residual = 8.66697e-06, No Iterations 1
DILUPBiCG:  Solving for Uz, Initial residual = 0.154515, Final residual = 5.56275e-05, No Iterations 3
GAMG:  Solving for p, Initial residual = 0.00883637, Final residual = 0.0006159, No Iterations 2
time step continuity errors : sum local = 2.24681e-05, global = -1.66564e-06, cumulative = -0.000119226
DILUPBiCG:  Solving for omega, Initial residual = 8.04002e-06, Final residual = 8.04002e-06, No Iterations 0
DILUPBiCG:  Solving for k, Initial residual = 1.93762e-05, Final residual = 1.72325e-06, No Iterations 1
bounding k, min: -0.00123082 max: 0.842591 average: 0.153624
ExecutionTime = 213.59 s  ClockTime = 216 s

Time = 994

DILUPBiCG:  Solving for Ux, Initial residual = 5.37786e-06, Final residual = 5.37786e-06, No Iterations 0
DILUPBiCG:  Solving for Uy, Initial residual = 0.000272654, Final residual = 8.62874e-06, No Iterations 1
DILUPBiCG:  Solving for Uz, Initial residual = 0.154996, Final residual = 5.94768e-05, No Iterations 3
GAMG:  Solving for p, Initial residual = 0.0093451, Final residual = 0.000846377, No Iterations 2
time step continuity errors : sum local = 3.08906e-05, global = 1.29253e-07, cumulative = -0.000119097
DILUPBiCG:  Solving for omega, Initial residual = 1.01215e-05, Final residual = 6.00967e-07, No Iterations 1
DILUPBiCG:  Solving for k, Initial residual = 2.83426e-05, Final residual = 1.30136e-06, No Iterations 1
bounding k, min: -0.00109513 max: 0.842612 average: 0.153649
ExecutionTime = 213.79 s  ClockTime = 216 s

Time = 995

DILUPBiCG:  Solving for Ux, Initial residual = 5.53918e-06, Final residual = 5.53918e-06, No Iterations 0
DILUPBiCG:  Solving for Uy, Initial residual = 0.000279412, Final residual = 2.58621e-06, No Iterations 2
DILUPBiCG:  Solving for Uz, Initial residual = 0.156308, Final residual = 5.33443e-05, No Iterations 3
GAMG:  Solving for p, Initial residual = 0.00944278, Final residual = 0.000644405, No Iterations 2
time step continuity errors : sum local = 2.35611e-05, global = -1.3975e-06, cumulative = -0.000120495
DILUPBiCG:  Solving for omega, Initial residual = 9.14527e-06, Final residual = 9.14527e-06, No Iterations 0
DILUPBiCG:  Solving for k, Initial residual = 3.08271e-05, Final residual = 1.7873e-06, No Iterations 1
bounding k, min: -0.00164127 max: 0.842624 average: 0.153633
ExecutionTime = 213.96 s  ClockTime = 217 s

Time = 996

DILUPBiCG:  Solving for Ux, Initial residual = 5.55406e-06, Final residual = 5.55406e-06, No Iterations 0
DILUPBiCG:  Solving for Uy, Initial residual = 0.000278439, Final residual = 9.20802e-06, No Iterations 1
DILUPBiCG:  Solving for Uz, Initial residual = 0.155688, Final residual = 4.95082e-05, No Iterations 3
GAMG:  Solving for p, Initial residual = 0.00931352, Final residual = 0.000689215, No Iterations 2
time step continuity errors : sum local = 2.52046e-05, global = -1.22624e-06, cumulative = -0.000121721
DILUPBiCG:  Solving for omega, Initial residual = 6.76373e-06, Final residual = 6.76373e-06, No Iterations 0
DILUPBiCG:  Solving for k, Initial residual = 1.90197e-05, Final residual = 1.63954e-06, No Iterations 1
bounding k, min: -0.00123582 max: 0.842639 average: 0.153626
ExecutionTime = 214.12 s  ClockTime = 217 s

Time = 997

DILUPBiCG:  Solving for Ux, Initial residual = 5.5921e-06, Final residual = 5.5921e-06, No Iterations 0
DILUPBiCG:  Solving for Uy, Initial residual = 0.000281633, Final residual = 9.02021e-06, No Iterations 1
DILUPBiCG:  Solving for Uz, Initial residual = 0.155505, Final residual = 4.8436e-05, No Iterations 3
GAMG:  Solving for p, Initial residual = 0.00986913, Final residual = 0.000681591, No Iterations 2
time step continuity errors : sum local = 2.49394e-05, global = -1.41435e-06, cumulative = -0.000123135
DILUPBiCG:  Solving for omega, Initial residual = 4.94635e-06, Final residual = 4.94635e-06, No Iterations 0
DILUPBiCG:  Solving for k, Initial residual = 2.89137e-05, Final residual = 1.26903e-06, No Iterations 1
bounding k, min: -0.00107974 max: 0.842657 average: 0.153651
ExecutionTime = 214.28 s  ClockTime = 217 s

Time = 998

DILUPBiCG:  Solving for Ux, Initial residual = 5.67183e-06, Final residual = 5.67183e-06, No Iterations 0
DILUPBiCG:  Solving for Uy, Initial residual = 0.000282476, Final residual = 4.68212e-07, No Iterations 2
DILUPBiCG:  Solving for Uz, Initial residual = 0.155712, Final residual = 5.07632e-05, No Iterations 3
GAMG:  Solving for p, Initial residual = 0.00999068, Final residual = 0.000692121, No Iterations 2
time step continuity errors : sum local = 2.53198e-05, global = -1.49253e-06, cumulative = -0.000124628
DILUPBiCG:  Solving for omega, Initial residual = 9.59617e-06, Final residual = 9.59617e-06, No Iterations 0
DILUPBiCG:  Solving for k, Initial residual = 3.04051e-05, Final residual = 1.81729e-06, No Iterations 1
bounding k, min: -0.00158979 max: 0.842676 average: 0.153636
ExecutionTime = 214.45 s  ClockTime = 217 s

Time = 999

DILUPBiCG:  Solving for Ux, Initial residual = 5.69068e-06, Final residual = 5.69068e-06, No Iterations 0
DILUPBiCG:  Solving for Uy, Initial residual = 0.00028176, Final residual = 9.38423e-06, No Iterations 1
DILUPBiCG:  Solving for Uz, Initial residual = 0.156566, Final residual = 6.0084e-05, No Iterations 3
GAMG:  Solving for p, Initial residual = 0.00986528, Final residual = 0.000746794, No Iterations 2
time step continuity errors : sum local = 2.73271e-05, global = -1.25667e-06, cumulative = -0.000125884
DILUPBiCG:  Solving for omega, Initial residual = 7.26442e-06, Final residual = 7.26442e-06, No Iterations 0
DILUPBiCG:  Solving for k, Initial residual = 1.90749e-05, Final residual = 1.71691e-06, No Iterations 1
bounding k, min: -0.00124014 max: 0.842698 average: 0.153628
ExecutionTime = 214.62 s  ClockTime = 217 s

Time = 1000

DILUPBiCG:  Solving for Ux, Initial residual = 5.74069e-06, Final residual = 5.74069e-06, No Iterations 0
DILUPBiCG:  Solving for Uy, Initial residual = 0.000287045, Final residual = 9.71433e-06, No Iterations 1
DILUPBiCG:  Solving for Uz, Initial residual = 0.157018, Final residual = 5.93163e-05, No Iterations 3
GAMG:  Solving for p, Initial residual = 0.0104331, Final residual = 0.000712613, No Iterations 2
time step continuity errors : sum local = 2.60919e-05, global = -1.70129e-06, cumulative = -0.000127586
DILUPBiCG:  Solving for omega, Initial residual = 5.2272e-06, Final residual = 5.2272e-06, No Iterations 0
DILUPBiCG:  Solving for k, Initial residual = 2.85397e-05, Final residual = 1.28536e-06, No Iterations 1
bounding k, min: -0.00109942 max: 0.842721 average: 0.153653
ExecutionTime = 214.81 s  ClockTime = 218 s

End

Finalising parallel run
